
  Mrv1817 04132013522D          

 80 80  0  0  0  0            999 V2000
   16.8469   -5.7365    0.0000 C   0  0  0  0  0  0  0  0  0  0  0  0
   16.0842   -5.4219    0.0000 C   0  0  0  0  0  0  0  0  0  0  0  0
   15.9753   -4.6042    0.0000 C   0  0  0  0  0  0  0  0  0  0  0  0
   15.4305   -5.9252    0.0000 C   0  0  0  0  0  0  0  0  0  0  0  0
   15.5395   -6.7430    0.0000 C   0  0  0  0  0  0  0  0  0  0  0  0
   14.8857   -7.2462    0.0000 N   0  0  0  0  0  0  0  0  0  0  0  0
   14.1230   -6.9317    0.0000 C   0  0  0  0  0  0  0  0  0  0  0  0
   14.0141   -6.1139    0.0000 O   0  0  0  0  0  0  0  0  0  0  0  0
   13.4693   -7.4349    0.0000 C   0  0  0  0  0  0  0  0  0  0  0  0
   12.7066   -7.1204    0.0000 N   0  0  0  0  0  0  0  0  0  0  0  0
   12.0529   -7.6236    0.0000 C   0  0  0  0  0  0  0  0  0  0  0  0
   12.1618   -8.4414    0.0000 O   0  0  0  0  0  0  0  0  0  0  0  0
   11.2902   -7.3091    0.0000 C   0  0  0  0  0  0  0  0  0  0  0  0
   11.1812   -6.4913    0.0000 C   0  0  0  0  0  0  0  0  0  0  0  0
   10.6365   -7.8123    0.0000 N   0  0  0  0  0  0  0  0  0  0  0  0
    9.8738   -7.4978    0.0000 C   0  0  0  0  0  0  0  0  0  0  0  0
    9.7648   -6.6800    0.0000 O   0  0  0  0  0  0  0  0  0  0  0  0
    9.2200   -8.0011    0.0000 C   0  0  0  0  0  0  0  0  0  0  0  0
    9.3290   -8.8188    0.0000 C   0  0  0  0  0  0  0  0  0  0  0  0
    8.6752   -9.3221    0.0000 O   0  0  0  0  0  0  0  0  0  0  0  0
    8.4573   -7.6865    0.0000 N   0  0  0  0  0  0  0  0  0  0  0  0
    7.8036   -8.1898    0.0000 C   0  0  0  0  0  0  0  0  0  0  0  0
    7.0409   -7.8753    0.0000 C   0  0  0  0  0  0  0  0  0  0  0  0
    7.9126   -9.0076    0.0000 O   0  0  0  0  0  0  0  0  0  0  0  0
   13.5783   -8.2527    0.0000 C   0  0  0  0  0  0  0  0  0  0  0  0
   12.9245   -8.7559    0.0000 C   0  0  0  0  0  0  0  0  0  0  0  0
   14.3409   -8.5672    0.0000 C   0  0  0  0  0  0  0  0  0  0  0  0
   16.3022   -7.0575    0.0000 C   0  0  0  0  0  0  0  0  0  0  0  0
   16.4111   -7.8753    0.0000 O   0  0  0  0  0  0  0  0  0  0  0  0
   16.9559   -6.5542    0.0000 N   0  0  0  0  0  0  0  0  0  0  0  0
   17.7186   -6.8688    0.0000 C   0  0  0  0  0  0  0  0  0  0  0  0
   18.3723   -6.3655    0.0000 C   0  0  0  0  0  0  0  0  0  0  0  0
   19.1350   -6.6800    0.0000 C   0  0  0  0  0  0  0  0  0  0  0  0
   19.8378   -6.2479    0.0000 C   0  0  0  0  0  0  0  0  0  0  0  0
   20.4659   -6.7827    0.0000 N   0  0  0  0  0  0  0  0  0  0  0  0
   20.1514   -7.5454    0.0000 C   0  0  0  0  0  0  0  0  0  0  0  0
   19.3288   -7.4820    0.0000 N   0  0  0  0  0  0  0  0  0  0  0  0
   17.8275   -7.6865    0.0000 C   0  0  0  0  0  0  0  0  0  0  0  0
   17.1738   -8.1898    0.0000 O   0  0  0  0  0  0  0  0  0  0  0  0
   17.6096   -6.0510    0.0000 H   0  0  0  0  0  0  0  0  0  0  0  0
   17.5007   -5.2332    0.0000 H   0  0  0  0  0  0  0  0  0  0  0  0
   16.7380   -4.9187    0.0000 H   0  0  0  0  0  0  0  0  0  0  0  0
   15.3216   -5.1074    0.0000 H   0  0  0  0  0  0  0  0  0  0  0  0
   16.6290   -4.1009    0.0000 H   0  0  0  0  0  0  0  0  0  0  0  0
   15.8663   -3.7864    0.0000 H   0  0  0  0  0  0  0  0  0  0  0  0
   15.2126   -4.2896    0.0000 H   0  0  0  0  0  0  0  0  0  0  0  0
   14.6248   -5.7479    0.0000 H   0  0  0  0  0  0  0  0  0  0  0  0
   14.6993   -6.3073    0.0000 H   0  0  0  0  0  0  0  0  0  0  0  0
   16.1932   -6.2397    0.0000 H   0  0  0  0  0  0  0  0  0  0  0  0
   14.9947   -8.0640    0.0000 H   0  0  0  0  0  0  0  0  0  0  0  0
   13.3603   -6.6171    0.0000 H   0  0  0  0  0  0  0  0  0  0  0  0
   12.2034   -6.4667    0.0000 H   0  0  0  0  0  0  0  0  0  0  0  0
   11.9439   -6.8059    0.0000 H   0  0  0  0  0  0  0  0  0  0  0  0
   11.6824   -5.8360    0.0000 H   0  0  0  0  0  0  0  0  0  0  0  0
   10.6780   -5.8376    0.0000 H   0  0  0  0  0  0  0  0  0  0  0  0
   10.4195   -6.8082    0.0000 H   0  0  0  0  0  0  0  0  0  0  0  0
   10.7454   -8.6301    0.0000 H   0  0  0  0  0  0  0  0  0  0  0  0
    9.9827   -8.3156    0.0000 H   0  0  0  0  0  0  0  0  0  0  0  0
    9.5783   -9.6053    0.0000 H   0  0  0  0  0  0  0  0  0  0  0  0
   10.0255   -9.2610    0.0000 H   0  0  0  0  0  0  0  0  0  0  0  0
    8.3943  -10.0978    0.0000 H   0  0  0  0  0  0  0  0  0  0  0  0
    8.3484   -6.8688    0.0000 H   0  0  0  0  0  0  0  0  0  0  0  0
    7.3554   -7.1126    0.0000 H   0  0  0  0  0  0  0  0  0  0  0  0
    6.2782   -7.5607    0.0000 H   0  0  0  0  0  0  0  0  0  0  0  0
    6.7264   -8.6379    0.0000 H   0  0  0  0  0  0  0  0  0  0  0  0
   12.8156   -7.9382    0.0000 H   0  0  0  0  0  0  0  0  0  0  0  0
   12.2708   -9.2592    0.0000 H   0  0  0  0  0  0  0  0  0  0  0  0
   13.0335   -9.5737    0.0000 H   0  0  0  0  0  0  0  0  0  0  0  0
   13.6872   -9.0705    0.0000 H   0  0  0  0  0  0  0  0  0  0  0  0
   14.5903   -9.3536    0.0000 H   0  0  0  0  0  0  0  0  0  0  0  0
   15.0374   -9.0094    0.0000 H   0  0  0  0  0  0  0  0  0  0  0  0
   14.2320   -7.7494    0.0000 H   0  0  0  0  0  0  0  0  0  0  0  0
   17.0648   -7.3720    0.0000 H   0  0  0  0  0  0  0  0  0  0  0  0
   18.4813   -7.1833    0.0000 H   0  0  0  0  0  0  0  0  0  0  0  0
   18.9287   -5.7564    0.0000 H   0  0  0  0  0  0  0  0  0  0  0  0
   18.4070   -5.5412    0.0000 H   0  0  0  0  0  0  0  0  0  0  0  0
   19.9012   -5.4253    0.0000 H   0  0  0  0  0  0  0  0  0  0  0  0
   20.5836   -8.2482    0.0000 H   0  0  0  0  0  0  0  0  0  0  0  0
   19.1586   -8.2892    0.0000 H   0  0  0  0  0  0  0  0  0  0  0  0
   18.3308   -8.3403    0.0000 H   0  0  0  0  0  0  0  0  0  0  0  0
  1  2  1  0  0  0  0
  2  3  1  0  0  0  0
  2  4  1  0  0  0  0
  5  4  1  0  0  0  0
  5  6  1  0  0  0  0
  6  7  1  0  0  0  0
  7  8  2  0  0  0  0
  9  7  1  0  0  0  0
  9 10  1  0  0  0  0
 10 11  1  0  0  0  0
 11 12  2  0  0  0  0
 13 11  1  0  0  0  0
 13 14  1  0  0  0  0
 13 15  1  0  0  0  0
 15 16  1  0  0  0  0
 16 17  2  0  0  0  0
 18 16  1  0  0  0  0
 18 19  1  0  0  0  0
 19 20  1  0  0  0  0
 18 21  1  0  0  0  0
 21 22  1  0  0  0  0
 22 23  1  0  0  0  0
 22 24  2  0  0  0  0
  9 25  1  0  0  0  0
 25 26  1  0  0  0  0
 25 27  1  0  0  0  0
  5 28  1  0  0  0  0
 28 29  2  0  0  0  0
 28 30  1  0  0  0  0
 31 30  1  0  0  0  0
 31 32  1  0  0  0  0
 32 33  1  0  0  0  0
 33 34  4  0  0  0  0
 34 35  4  0  0  0  0
 35 36  4  0  0  0  0
 36 37  4  0  0  0  0
 33 37  4  0  0  0  0
 31 38  1  0  0  0  0
 38 39  2  0  0  0  0
  1 40  1  0  0  0  0
  1 41  1  0  0  0  0
  1 42  1  0  0  0  0
  2 43  1  0  0  0  0
  3 44  1  0  0  0  0
  3 45  1  0  0  0  0
  3 46  1  0  0  0  0
  4 47  1  0  0  0  0
  4 48  1  0  0  0  0
  5 49  1  0  0  0  0
  6 50  1  0  0  0  0
  9 51  1  0  0  0  0
 10 52  1  0  0  0  0
 13 53  1  0  0  0  0
 14 54  1  0  0  0  0
 14 55  1  0  0  0  0
 14 56  1  0  0  0  0
 15 57  1  0  0  0  0
 18 58  1  0  0  0  0
 19 59  1  0  0  0  0
 19 60  1  0  0  0  0
 20 61  1  0  0  0  0
 21 62  1  0  0  0  0
 23 63  1  0  0  0  0
 23 64  1  0  0  0  0
 23 65  1  0  0  0  0
 25 66  1  0  0  0  0
 26 67  1  0  0  0  0
 26 68  1  0  0  0  0
 26 69  1  0  0  0  0
 27 70  1  0  0  0  0
 27 71  1  0  0  0  0
 27 72  1  0  0  0  0
 30 73  1  0  0  0  0
 31 74  1  0  0  0  0
 32 75  1  0  0  0  0
 32 76  1  0  0  0  0
 34 77  1  0  0  0  0
 36 78  1  0  0  0  0
 37 79  1  0  0  0  0
 38 80  1  0  0  0  0
M  END
> <Compound_name>


> <Standard Type>
IC50

> <Standard Relation>
=

> <Standard Value>
5700.0

> <Standard Units>
nM

> <Outcome>
Active

> <InChIKey>
AEYIBAPLFDNVGD-UHFFFAOYNA-N

> <Molecule ChEMBL ID>


$$$$

  Mrv1817 04132013522D          

 71 74  0  0  1  0            999 V2000
    3.6294   -2.9645    0.0000 C   0  0  0  0  0  0  0  0  0  0  0  0
    3.3745   -3.7491    0.0000 C   0  0  0  0  0  0  0  0  0  0  0  0
    2.5675   -3.9207    0.0000 C   0  0  0  0  0  0  0  0  0  0  0  0
    2.7390   -4.7276    0.0000 C   0  0  0  0  0  0  0  0  0  0  0  0
    2.3960   -3.1137    0.0000 C   0  0  0  0  0  0  0  0  0  0  0  0
    1.7605   -4.0922    0.0000 N   0  0  0  0  0  0  0  0  0  0  0  0
    1.2085   -3.4791    0.0000 C   0  0  0  0  0  0  0  0  0  0  0  0
    1.4634   -2.6945    0.0000 O   0  0  0  0  0  0  0  0  0  0  0  0
    0.4015   -3.6506    0.0000 C   0  0  0  0  0  0  0  0  0  0  0  0
   -0.1505   -3.0375    0.0000 N   0  0  0  0  0  0  0  0  0  0  0  0
    0.1044   -2.2529    0.0000 C   0  0  0  0  0  0  0  0  0  0  0  0
   -0.4476   -1.6398    0.0000 O   0  0  0  0  0  0  0  0  0  0  0  0
    0.9114   -2.0814    0.0000 C   0  0  0  0  0  0  0  0  0  0  0  0
    1.1663   -1.2968    0.0000 N   0  0  0  0  0  0  0  0  0  0  0  0
    0.6814   -0.6293    0.0000 N   0  0  0  0  0  0  0  0  0  0  0  0
    1.1663    0.0381    0.0000 N   0  0  0  0  0  0  0  0  0  0  0  0
    1.9510   -0.2168    0.0000 C   0  0  0  0  0  0  0  0  0  0  0  0
    2.6654    0.1957    0.0000 C   0  0  0  0  0  0  0  0  0  0  0  0
    3.3799   -0.2168    0.0000 C   0  0  0  0  0  0  0  0  0  0  0  0
    3.3799   -1.0418    0.0000 C   0  0  0  0  0  0  0  0  0  0  0  0
    2.6654   -1.4543    0.0000 C   0  0  0  0  0  0  0  0  0  0  0  0
    1.9510   -1.0418    0.0000 C   0  0  0  0  0  0  0  0  0  0  0  0
   -0.9575   -3.2091    0.0000 C   0  0  0  0  0  0  0  0  0  0  0  0
   -1.2124   -3.9937    0.0000 C   0  0  0  0  0  0  0  0  0  0  0  0
   -2.0194   -4.1652    0.0000 C   0  0  0  0  0  0  0  0  0  0  0  0
   -2.5714   -3.5521    0.0000 C   0  0  0  0  0  0  0  0  0  0  0  0
   -3.3784   -3.7236    0.0000 N   0  0  0  0  0  0  0  0  0  0  0  0
   -3.9304   -3.1106    0.0000 C   0  0  0  0  0  0  0  0  0  0  0  0
   -4.7374   -3.2821    0.0000 C   0  0  0  0  0  0  0  0  0  0  0  0
   -3.6755   -2.3259    0.0000 O   0  0  0  0  0  0  0  0  0  0  0  0
   -2.3165   -2.7675    0.0000 C   0  0  0  0  0  0  0  0  0  0  0  0
   -1.5095   -2.5960    0.0000 C   0  0  0  0  0  0  0  0  0  0  0  0
    0.1466   -4.4353    0.0000 C   0  0  0  0  0  0  0  0  0  0  0  0
   -0.6380   -4.6902    0.0000 C   0  0  0  0  0  0  0  0  0  0  0  0
   -0.6380   -5.5152    0.0000 C   0  0  0  0  0  0  0  0  0  0  0  0
    0.1466   -5.7701    0.0000 C   0  0  0  0  0  0  0  0  0  0  0  0
    0.6315   -5.1027    0.0000 N   0  0  0  0  0  0  0  0  0  0  0  0
    1.4565   -5.1027    0.0000 C   0  0  0  0  0  0  0  0  0  0  0  0
    4.4140   -3.2195    0.0000 H   0  0  0  0  0  0  0  0  0  0  0  0
    3.8843   -2.1799    0.0000 H   0  0  0  0  0  0  0  0  0  0  0  0
    2.8448   -2.7096    0.0000 H   0  0  0  0  0  0  0  0  0  0  0  0
    3.5926   -4.5448    0.0000 H   0  0  0  0  0  0  0  0  0  0  0  0
    4.1429   -4.0493    0.0000 H   0  0  0  0  0  0  0  0  0  0  0  0
    1.9278   -4.5776    0.0000 H   0  0  0  0  0  0  0  0  0  0  0  0
    2.2902   -5.4199    0.0000 H   0  0  0  0  0  0  0  0  0  0  0  0
    3.2071   -5.4070    0.0000 H   0  0  0  0  0  0  0  0  0  0  0  0
    2.2244   -2.3067    0.0000 H   0  0  0  0  0  0  0  0  0  0  0  0
    1.6113   -2.8588    0.0000 H   0  0  0  0  0  0  0  0  0  0  0  0
    1.7829   -3.6657    0.0000 H   0  0  0  0  0  0  0  0  0  0  0  0
    1.0497   -4.5110    0.0000 H   0  0  0  0  0  0  0  0  0  0  0  0
    0.6565   -2.8660    0.0000 H   0  0  0  0  0  0  0  0  0  0  0  0
    1.7184   -1.9099    0.0000 H   0  0  0  0  0  0  0  0  0  0  0  0
    0.3594   -1.4683    0.0000 H   0  0  0  0  0  0  0  0  0  0  0  0
    2.6654    1.0207    0.0000 H   0  0  0  0  0  0  0  0  0  0  0  0
    4.0944    0.1957    0.0000 H   0  0  0  0  0  0  0  0  0  0  0  0
    4.0944   -1.4543    0.0000 H   0  0  0  0  0  0  0  0  0  0  0  0
    3.2621   -2.0241    0.0000 H   0  0  0  0  0  0  0  0  0  0  0  0
   -0.4019   -3.8397    0.0000 H   0  0  0  0  0  0  0  0  0  0  0  0
   -2.2743   -4.9498    0.0000 H   0  0  0  0  0  0  0  0  0  0  0  0
   -3.6333   -4.5083    0.0000 H   0  0  0  0  0  0  0  0  0  0  0  0
   -4.9089   -2.4751    0.0000 H   0  0  0  0  0  0  0  0  0  0  0  0
   -5.5444   -3.4536    0.0000 H   0  0  0  0  0  0  0  0  0  0  0  0
   -4.5659   -4.0890    0.0000 H   0  0  0  0  0  0  0  0  0  0  0  0
   -2.8685   -2.1544    0.0000 H   0  0  0  0  0  0  0  0  0  0  0  0
   -1.2546   -1.8113    0.0000 H   0  0  0  0  0  0  0  0  0  0  0  0
   -1.4145   -4.9690    0.0000 H   0  0  0  0  0  0  0  0  0  0  0  0
   -1.0069   -6.2531    0.0000 H   0  0  0  0  0  0  0  0  0  0  0  0
    0.4015   -6.5548    0.0000 H   0  0  0  0  0  0  0  0  0  0  0  0
    0.8226   -5.6307    0.0000 H   0  0  0  0  0  0  0  0  0  0  0  0
    1.3074   -5.9141    0.0000 H   0  0  0  0  0  0  0  0  0  0  0  0
    1.8612   -5.8216    0.0000 H   0  0  0  0  0  0  0  0  0  0  0  0
  1  2  1  0  0  0  0
  2  3  1  0  0  0  0
  3  4  1  0  0  0  0
  3  5  1  0  0  0  0
  3  6  1  0  0  0  0
  6  7  1  0  0  0  0
  7  8  2  0  0  0  0
  9  7  1  0  0  0  0
  9 10  1  0  0  0  0
 10 11  1  0  0  0  0
 11 12  2  0  0  0  0
 11 13  1  0  0  0  0
 13 14  1  0  0  0  0
 14 15  4  0  0  0  0
 15 16  4  0  0  0  0
 16 17  4  0  0  0  0
 17 18  4  0  0  0  0
 18 19  4  0  0  0  0
 19 20  4  0  0  0  0
 20 21  4  0  0  0  0
 21 22  4  0  0  0  0
 14 22  4  0  0  0  0
 17 22  4  0  0  0  0
 10 23  1  0  0  0  0
 23 24  4  0  0  0  0
 24 25  4  0  0  0  0
 25 26  4  0  0  0  0
 26 27  1  0  0  0  0
 27 28  1  0  0  0  0
 28 29  1  0  0  0  0
 28 30  2  0  0  0  0
 26 31  4  0  0  0  0
 31 32  4  0  0  0  0
 23 32  4  0  0  0  0
  9 33  1  0  0  0  0
 33 34  4  0  0  0  0
 34 35  4  0  0  0  0
 35 36  4  0  0  0  0
 36 37  4  0  0  0  0
 33 37  4  0  0  0  0
 37 38  1  0  0  0  0
  1 39  1  0  0  0  0
  1 40  1  0  0  0  0
  1 41  1  0  0  0  0
  2 42  1  0  0  0  0
  2 43  1  0  0  0  0
  4 44  1  0  0  0  0
  4 45  1  0  0  0  0
  4 46  1  0  0  0  0
  5 47  1  0  0  0  0
  5 48  1  0  0  0  0
  5 49  1  0  0  0  0
  6 50  1  0  0  0  0
  9 51  1  0  0  0  0
 13 52  1  0  0  0  0
 13 53  1  0  0  0  0
 18 54  1  0  0  0  0
 19 55  1  0  0  0  0
 20 56  1  0  0  0  0
 21 57  1  0  0  0  0
 24 58  1  0  0  0  0
 25 59  1  0  0  0  0
 27 60  1  0  0  0  0
 29 61  1  0  0  0  0
 29 62  1  0  0  0  0
 29 63  1  0  0  0  0
 31 64  1  0  0  0  0
 32 65  1  0  0  0  0
 34 66  1  0  0  0  0
 35 67  1  0  0  0  0
 36 68  1  0  0  0  0
 38 69  1  0  0  0  0
 38 70  1  0  0  0  0
 38 71  1  0  0  0  0
M  END
> <Compound_name>
(2R)-2-(4-acetamido-N-[2-(benzotriazol-1-yl)acetyl]anilino)-N-(2-methylbutan-2-yl)-2-(1-methylpyrrol-2-yl)acetamide

> <Standard Type>
IC50

> <Standard Relation>
=

> <Standard Value>
6200.0

> <Standard Units>
nM

> <Outcome>
Active

> <InChIKey>
BCIIGGMNYNWRQK-UHFFFAOYSA-N

> <Molecule ChEMBL ID>


$$$$

  Mrv1817 04132013522D          

 76 76  0  0  1  0            999 V2000
    7.4658   -3.1776    0.0000 C   0  0  0  0  0  0  0  0  0  0  0  0
    7.4658   -2.3526    0.0000 C   0  0  0  0  0  0  0  0  0  0  0  0
    8.1802   -1.9401    0.0000 C   0  0  0  0  0  0  0  0  0  0  0  0
    6.7513   -1.9401    0.0000 C   0  0  0  0  0  0  0  0  0  0  0  0
    6.7513   -1.1151    0.0000 C   0  0  0  0  0  0  0  0  0  0  0  0
    6.0368   -0.7026    0.0000 N   0  0  0  0  0  0  0  0  0  0  0  0
    5.3223   -1.1151    0.0000 C   0  0  0  0  0  0  0  0  0  0  0  0
    5.3223   -1.9401    0.0000 O   0  0  0  0  0  0  0  0  0  0  0  0
    4.6079   -0.7026    0.0000 C   0  0  0  0  0  0  0  0  0  0  0  0
    3.8934   -1.1151    0.0000 N   0  0  0  0  0  0  0  0  0  0  0  0
    3.1789   -0.7026    0.0000 C   0  0  0  0  0  0  0  0  0  0  0  0
    3.1789    0.1224    0.0000 O   0  0  0  0  0  0  0  0  0  0  0  0
    2.4645   -1.1151    0.0000 C   0  0  0  0  0  0  0  0  0  0  0  0
    2.4645   -1.9401    0.0000 C   0  0  0  0  0  0  0  0  0  0  0  0
    1.7500   -0.7026    0.0000 N   0  0  0  0  0  0  0  0  0  0  0  0
    1.0355   -1.1151    0.0000 C   0  0  0  0  0  0  0  0  0  0  0  0
    1.0355   -1.9401    0.0000 O   0  0  0  0  0  0  0  0  0  0  0  0
    0.3210   -0.7026    0.0000 C   0  0  0  0  0  0  0  0  0  0  0  0
   -0.4326   -1.0382    0.0000 C   0  0  0  0  0  0  0  0  0  0  0  0
   -0.9847   -0.4251    0.0000 C   0  0  0  0  0  0  0  0  0  0  0  0
   -1.8051   -0.5113    0.0000 C   0  0  0  0  0  0  0  0  0  0  0  0
   -0.5722    0.2894    0.0000 O   0  0  0  0  0  0  0  0  0  0  0  0
    0.2348    0.1179    0.0000 N   0  0  0  0  0  0  0  0  0  0  0  0
    4.6079    0.1224    0.0000 C   0  0  0  0  0  0  0  0  0  0  0  0
    3.8934    0.5349    0.0000 C   0  0  0  0  0  0  0  0  0  0  0  0
    5.3223    0.5349    0.0000 C   0  0  0  0  0  0  0  0  0  0  0  0
    7.4658   -0.7026    0.0000 C   0  0  0  0  0  0  0  0  0  0  0  0
    7.4658    0.1224    0.0000 O   0  0  0  0  0  0  0  0  0  0  0  0
    8.1802   -1.1151    0.0000 N   0  0  0  0  0  0  0  0  0  0  0  0
    8.8947   -0.7026    0.0000 C   0  0  0  0  0  0  0  0  0  0  0  0
    9.6092   -1.1151    0.0000 C   0  0  0  0  0  0  0  0  0  0  0  0
   10.3236   -0.7026    0.0000 C   0  0  0  0  0  0  0  0  0  0  0  0
   11.0381   -1.1151    0.0000 C   0  0  0  0  0  0  0  0  0  0  0  0
   11.7526   -0.7026    0.0000 N   0  0  0  0  0  0  0  0  0  0  0  0
   11.0381   -1.9401    0.0000 O   0  0  0  0  0  0  0  0  0  0  0  0
    8.8947    0.1224    0.0000 C   0  0  0  0  0  0  0  0  0  0  0  0
    9.6092    0.5349    0.0000 N   0  0  0  0  0  0  0  0  0  0  0  0
    6.6408   -3.1776    0.0000 H   0  0  0  0  0  0  0  0  0  0  0  0
    7.4658   -4.0026    0.0000 H   0  0  0  0  0  0  0  0  0  0  0  0
    8.2908   -3.1776    0.0000 H   0  0  0  0  0  0  0  0  0  0  0  0
    8.1802   -2.7651    0.0000 H   0  0  0  0  0  0  0  0  0  0  0  0
    8.9555   -2.2223    0.0000 H   0  0  0  0  0  0  0  0  0  0  0  0
    8.9555   -1.6580    0.0000 H   0  0  0  0  0  0  0  0  0  0  0  0
    7.4658   -1.5276    0.0000 H   0  0  0  0  0  0  0  0  0  0  0  0
    5.9277   -1.9881    0.0000 H   0  0  0  0  0  0  0  0  0  0  0  0
    6.2979   -2.6294    0.0000 H   0  0  0  0  0  0  0  0  0  0  0  0
    6.0368   -1.5276    0.0000 H   0  0  0  0  0  0  0  0  0  0  0  0
    6.0368    0.1224    0.0000 H   0  0  0  0  0  0  0  0  0  0  0  0
    4.6079   -1.5276    0.0000 H   0  0  0  0  0  0  0  0  0  0  0  0
    3.4809   -1.8296    0.0000 H   0  0  0  0  0  0  0  0  0  0  0  0
    3.1789   -1.5276    0.0000 H   0  0  0  0  0  0  0  0  0  0  0  0
    1.6676   -1.7266    0.0000 H   0  0  0  0  0  0  0  0  0  0  0  0
    2.0520   -2.6546    0.0000 H   0  0  0  0  0  0  0  0  0  0  0  0
    3.0478   -2.5235    0.0000 H   0  0  0  0  0  0  0  0  0  0  0  0
    1.7500    0.1224    0.0000 H   0  0  0  0  0  0  0  0  0  0  0  0
   -0.6042   -1.8452    0.0000 H   0  0  0  0  0  0  0  0  0  0  0  0
   -1.8914    0.3092    0.0000 H   0  0  0  0  0  0  0  0  0  0  0  0
   -2.6256   -0.5976    0.0000 H   0  0  0  0  0  0  0  0  0  0  0  0
   -1.7189   -1.3318    0.0000 H   0  0  0  0  0  0  0  0  0  0  0  0
    3.8934   -0.2901    0.0000 H   0  0  0  0  0  0  0  0  0  0  0  0
    4.6079    0.9474    0.0000 H   0  0  0  0  0  0  0  0  0  0  0  0
    3.8934    1.3599    0.0000 H   0  0  0  0  0  0  0  0  0  0  0  0
    3.1789    0.9474    0.0000 H   0  0  0  0  0  0  0  0  0  0  0  0
    5.9543    1.0652    0.0000 H   0  0  0  0  0  0  0  0  0  0  0  0
    5.4656    1.3473    0.0000 H   0  0  0  0  0  0  0  0  0  0  0  0
    5.3223   -0.2901    0.0000 H   0  0  0  0  0  0  0  0  0  0  0  0
    8.1802   -0.2901    0.0000 H   0  0  0  0  0  0  0  0  0  0  0  0
    9.6092   -0.2901    0.0000 H   0  0  0  0  0  0  0  0  0  0  0  0
    9.7021   -1.9349    0.0000 H   0  0  0  0  0  0  0  0  0  0  0  0
   10.3458   -1.4866    0.0000 H   0  0  0  0  0  0  0  0  0  0  0  0
   10.9556   -0.1723    0.0000 H   0  0  0  0  0  0  0  0  0  0  0  0
   10.4669    0.1098    0.0000 H   0  0  0  0  0  0  0  0  0  0  0  0
   12.4305   -1.1729    0.0000 H   0  0  0  0  0  0  0  0  0  0  0  0
   12.4589   -0.2764    0.0000 H   0  0  0  0  0  0  0  0  0  0  0  0
    8.4822    0.8368    0.0000 H   0  0  0  0  0  0  0  0  0  0  0  0
    9.5830    1.3595    0.0000 H   0  0  0  0  0  0  0  0  0  0  0  0
  1  2  1  0  0  0  0
  2  3  1  0  0  0  0
  2  4  1  0  0  0  0
  5  4  1  0  0  0  0
  5  6  1  0  0  0  0
  6  7  1  0  0  0  0
  7  8  2  0  0  0  0
  9  7  1  0  0  0  0
  9 10  1  0  0  0  0
 10 11  1  0  0  0  0
 11 12  2  0  0  0  0
 13 11  1  0  0  0  0
 13 14  1  0  0  0  0
 13 15  1  0  0  0  0
 15 16  1  0  0  0  0
 16 17  2  0  0  0  0
 16 18  1  0  0  0  0
 18 19  4  0  0  0  0
 19 20  4  0  0  0  0
 20 21  1  0  0  0  0
 20 22  4  0  0  0  0
 22 23  4  0  0  0  0
 18 23  4  0  0  0  0
  9 24  1  0  0  0  0
 24 25  1  0  0  0  0
 24 26  1  0  0  0  0
  5 27  1  0  0  0  0
 27 28  2  0  0  0  0
 27 29  1  0  0  0  0
 30 29  1  0  0  0  0
 30 31  1  0  0  0  0
 31 32  1  0  0  0  0
 32 33  1  0  0  0  0
 33 34  1  0  0  0  0
 33 35  2  0  0  0  0
 30 36  1  0  0  0  0
 36 37  2  0  0  0  0
  1 38  1  0  0  0  0
  1 39  1  0  0  0  0
  1 40  1  0  0  0  0
  2 41  1  0  0  0  0
  3 42  1  0  0  0  0
  3 43  1  0  0  0  0
  3 44  1  0  0  0  0
  4 45  1  0  0  0  0
  4 46  1  0  0  0  0
  5 47  1  0  0  0  0
  6 48  1  0  0  0  0
  9 49  1  0  0  0  0
 10 50  1  0  0  0  0
 13 51  1  0  0  0  0
 14 52  1  0  0  0  0
 14 53  1  0  0  0  0
 14 54  1  0  0  0  0
 15 55  1  0  0  0  0
 19 56  1  0  0  0  0
 21 57  1  0  0  0  0
 21 58  1  0  0  0  0
 21 59  1  0  0  0  0
 24 60  1  0  0  0  0
 25 61  1  0  0  0  0
 25 62  1  0  0  0  0
 25 63  1  0  0  0  0
 26 64  1  0  0  0  0
 26 65  1  0  0  0  0
 26 66  1  0  0  0  0
 29 67  1  0  0  0  0
 30 68  1  0  0  0  0
 31 69  1  0  0  0  0
 31 70  1  0  0  0  0
 32 71  1  0  0  0  0
 32 72  1  0  0  0  0
 34 73  1  0  0  0  0
 34 74  1  0  0  0  0
 36 75  1  0  0  0  0
 37 76  1  0  0  0  0
M  END
> <Compound_name>


> <Standard Type>
IC50

> <Standard Relation>
=

> <Standard Value>
49000.0

> <Standard Units>
nM

> <Outcome>
Inactive

> <InChIKey>
BEDKZMYJXHXMQM-OPEKNORGSA-N

> <Molecule ChEMBL ID>


$$$$

  Mrv1817 04132013522D          

 60 62  0  0  1  0            999 V2000
    3.5662   -7.8399    0.0000 O   0  0  0  0  0  0  0  0  0  0  0  0
    4.2807   -7.4274    0.0000 C   0  0  0  0  0  0  0  0  0  0  0  0
    4.2807   -6.6024    0.0000 C   0  0  0  0  0  0  0  0  0  0  0  0
    3.5662   -6.1899    0.0000 C   0  0  0  0  0  0  0  0  0  0  0  0
    2.8517   -6.6024    0.0000 C   0  0  0  0  0  0  0  0  0  0  0  0
    2.8517   -7.4274    0.0000 C   0  0  0  0  0  0  0  0  0  0  0  0
    2.1373   -7.8399    0.0000 C   0  0  0  0  0  0  0  0  0  0  0  0
    1.4228   -7.4274    0.0000 C   0  0  0  0  0  0  0  0  0  0  0  0
    1.4228   -6.6024    0.0000 C   0  0  0  0  0  0  0  0  0  0  0  0
    2.1373   -6.1899    0.0000 C   0  0  0  0  0  0  0  0  0  0  0  0
    4.9951   -6.1899    0.0000 N   0  0  0  0  0  0  0  0  0  0  0  0
    5.7096   -6.6024    0.0000 C   0  0  0  0  0  0  0  0  0  0  0  0
    5.7096   -7.4274    0.0000 O   0  0  0  0  0  0  0  0  0  0  0  0
    6.4241   -6.1899    0.0000 C   0  0  0  0  0  0  0  0  0  0  0  0
    6.4241   -5.3649    0.0000 C   0  0  0  0  0  0  0  0  0  0  0  0
    5.7096   -4.9524    0.0000 C   0  0  0  0  0  0  0  0  0  0  0  0
    4.9951   -5.3649    0.0000 C   0  0  0  0  0  0  0  0  0  0  0  0
    4.2807   -4.9524    0.0000 C   0  0  0  0  0  0  0  0  0  0  0  0
    4.2807   -4.1274    0.0000 C   0  0  0  0  0  0  0  0  0  0  0  0
    4.9951   -3.7149    0.0000 C   0  0  0  0  0  0  0  0  0  0  0  0
    5.7096   -4.1274    0.0000 C   0  0  0  0  0  0  0  0  0  0  0  0
    7.1386   -6.6024    0.0000 N   0  0  0  0  0  0  0  0  0  0  0  0
    7.8530   -6.1899    0.0000 C   0  0  0  0  0  0  0  0  0  0  0  0
    7.8530   -5.3649    0.0000 O   0  0  0  0  0  0  0  0  0  0  0  0
    8.5675   -6.6024    0.0000 C   0  0  0  0  0  0  0  0  0  0  0  0
    9.2820   -6.1899    0.0000 C   0  0  0  0  0  0  0  0  0  0  0  0
    9.9964   -6.6024    0.0000 C   0  0  0  0  0  0  0  0  0  0  0  0
   10.7109   -6.1899    0.0000 C   0  0  0  0  0  0  0  0  0  0  0  0
   11.4254   -6.6024    0.0000 C   0  0  0  0  0  0  0  0  0  0  0  0
   11.4254   -7.4274    0.0000 C   0  0  0  0  0  0  0  0  0  0  0  0
   10.7109   -7.8399    0.0000 C   0  0  0  0  0  0  0  0  0  0  0  0
    9.9964   -7.4274    0.0000 C   0  0  0  0  0  0  0  0  0  0  0  0
    3.5662   -8.6649    0.0000 H   0  0  0  0  0  0  0  0  0  0  0  0
    4.7340   -8.1166    0.0000 H   0  0  0  0  0  0  0  0  0  0  0  0
    5.1043   -7.4753    0.0000 H   0  0  0  0  0  0  0  0  0  0  0  0
    3.5662   -7.0149    0.0000 H   0  0  0  0  0  0  0  0  0  0  0  0
    3.9365   -5.4526    0.0000 H   0  0  0  0  0  0  0  0  0  0  0  0
    3.1959   -5.4526    0.0000 H   0  0  0  0  0  0  0  0  0  0  0  0
    2.8517   -8.2524    0.0000 H   0  0  0  0  0  0  0  0  0  0  0  0
    1.7248   -8.5543    0.0000 H   0  0  0  0  0  0  0  0  0  0  0  0
    0.7083   -7.8399    0.0000 H   0  0  0  0  0  0  0  0  0  0  0  0
    0.7083   -6.1899    0.0000 H   0  0  0  0  0  0  0  0  0  0  0  0
    2.1373   -5.3649    0.0000 H   0  0  0  0  0  0  0  0  0  0  0  0
    4.2807   -5.7774    0.0000 H   0  0  0  0  0  0  0  0  0  0  0  0
    5.7096   -5.7774    0.0000 H   0  0  0  0  0  0  0  0  0  0  0  0
    7.2477   -5.3169    0.0000 H   0  0  0  0  0  0  0  0  0  0  0  0
    6.8774   -4.6756    0.0000 H   0  0  0  0  0  0  0  0  0  0  0  0
    4.9951   -4.5399    0.0000 H   0  0  0  0  0  0  0  0  0  0  0  0
    3.4929   -4.7075    0.0000 H   0  0  0  0  0  0  0  0  0  0  0  0
    3.5662   -3.7149    0.0000 H   0  0  0  0  0  0  0  0  0  0  0  0
    4.9951   -2.8899    0.0000 H   0  0  0  0  0  0  0  0  0  0  0  0
    6.4241   -3.7149    0.0000 H   0  0  0  0  0  0  0  0  0  0  0  0
    7.1386   -7.4274    0.0000 H   0  0  0  0  0  0  0  0  0  0  0  0
    8.5675   -7.4274    0.0000 H   0  0  0  0  0  0  0  0  0  0  0  0
    9.2820   -5.3649    0.0000 H   0  0  0  0  0  0  0  0  0  0  0  0
   10.7109   -5.3649    0.0000 H   0  0  0  0  0  0  0  0  0  0  0  0
   12.1399   -6.1899    0.0000 H   0  0  0  0  0  0  0  0  0  0  0  0
   12.1399   -7.8399    0.0000 H   0  0  0  0  0  0  0  0  0  0  0  0
   10.7109   -8.6649    0.0000 H   0  0  0  0  0  0  0  0  0  0  0  0
    9.2820   -7.8399    0.0000 H   0  0  0  0  0  0  0  0  0  0  0  0
  1  2  1  0  0  0  0
  3  2  1  0  0  0  0
  3  4  1  0  0  0  0
  4  5  1  0  0  0  0
  5  6  4  0  0  0  0
  6  7  4  0  0  0  0
  7  8  4  0  0  0  0
  8  9  4  0  0  0  0
  9 10  4  0  0  0  0
  5 10  4  0  0  0  0
  3 11  1  0  0  0  0
 11 12  1  0  0  0  0
 12 13  2  0  0  0  0
 14 12  1  0  0  0  0
 14 15  1  0  0  0  0
 15 16  1  0  0  0  0
 16 17  4  0  0  0  0
 17 18  4  0  0  0  0
 18 19  4  0  0  0  0
 19 20  4  0  0  0  0
 20 21  4  0  0  0  0
 16 21  4  0  0  0  0
 14 22  1  0  0  0  0
 22 23  1  0  0  0  0
 23 24  2  0  0  0  0
 25 23  1  4  0  0  0
 25 26  2  0  0  0  0
 26 27  1  0  0  0  0
 27 28  4  0  0  0  0
 28 29  4  0  0  0  0
 29 30  4  0  0  0  0
 30 31  4  0  0  0  0
 31 32  4  0  0  0  0
 27 32  4  0  0  0  0
  1 33  1  0  0  0  0
  2 34  1  0  0  0  0
  2 35  1  0  0  0  0
  3 36  1  0  0  0  0
  4 37  1  0  0  0  0
  4 38  1  0  0  0  0
  6 39  1  0  0  0  0
  7 40  1  0  0  0  0
  8 41  1  0  0  0  0
  9 42  1  0  0  0  0
 10 43  1  0  0  0  0
 11 44  1  0  0  0  0
 14 45  1  0  0  0  0
 15 46  1  0  0  0  0
 15 47  1  0  0  0  0
 17 48  1  0  0  0  0
 18 49  1  0  0  0  0
 19 50  1  0  0  0  0
 20 51  1  0  0  0  0
 21 52  1  0  0  0  0
 22 53  1  0  0  0  0
 25 54  1  0  0  0  0
 26 55  1  0  0  0  0
 28 56  1  0  0  0  0
 29 57  1  0  0  0  0
 30 58  1  0  0  0  0
 31 59  1  0  0  0  0
 32 60  1  0  0  0  0
M  END
> <Compound_name>
(2S)-N-[(2S)-1-hydroxy-3-phenylpropan-2-yl]-3-phenyl-2-[[(E)-3-phenylprop-2-enoyl]amino]propanamide

> <Standard Type>
Ki

> <Standard Relation>
=

> <Standard Value>
2240.0

> <Standard Units>
nM

> <Outcome>
Active

> <InChIKey>
GEVQDXBVGFGWFA-UHFFFAOYSA-N

> <Molecule ChEMBL ID>


$$$$

  Mrv1817 04132013522D          

 83 83  0  0  1  0            999 V2000
   -1.0905   -7.3746    0.0000 C   0  0  0  0  0  0  0  0  0  0  0  0
   -1.8475   -7.0468    0.0000 C   0  0  0  0  0  0  0  0  0  0  0  0
   -2.5100   -7.5385    0.0000 O   0  0  0  0  0  0  0  0  0  0  0  0
   -1.9422   -6.2272    0.0000 N   0  0  0  0  0  0  0  0  0  0  0  0
   -1.2797   -5.7355    0.0000 C   0  0  0  0  0  0  0  0  0  0  0  0
   -1.3744   -4.9159    0.0000 C   0  0  0  0  0  0  0  0  0  0  0  0
   -2.1314   -4.5881    0.0000 C   0  0  0  0  0  0  0  0  0  0  0  0
   -2.7939   -5.0799    0.0000 O   0  0  0  0  0  0  0  0  0  0  0  0
   -2.2261   -3.7686    0.0000 O   0  0  0  0  0  0  0  0  0  0  0  0
   -0.5227   -6.0633    0.0000 C   0  0  0  0  0  0  0  0  0  0  0  0
   -0.4280   -6.8829    0.0000 O   0  0  0  0  0  0  0  0  0  0  0  0
    0.1398   -5.5716    0.0000 N   0  0  0  0  0  0  0  0  0  0  0  0
    0.8968   -5.8994    0.0000 C   0  0  0  0  0  0  0  0  0  0  0  0
    0.9915   -6.7190    0.0000 C   0  0  0  0  0  0  0  0  0  0  0  0
    1.7485   -7.0468    0.0000 O   0  0  0  0  0  0  0  0  0  0  0  0
    1.5593   -5.4077    0.0000 C   0  0  0  0  0  0  0  0  0  0  0  0
    1.4646   -4.5881    0.0000 O   0  0  0  0  0  0  0  0  0  0  0  0
    2.3164   -5.7355    0.0000 N   0  0  0  0  0  0  0  0  0  0  0  0
    2.9788   -5.2438    0.0000 C   0  0  0  0  0  0  0  0  0  0  0  0
    2.8842   -4.4242    0.0000 C   0  0  0  0  0  0  0  0  0  0  0  0
    3.5466   -3.9325    0.0000 C   0  0  0  0  0  0  0  0  0  0  0  0
    3.4520   -3.1129    0.0000 C   0  0  0  0  0  0  0  0  0  0  0  0
    4.1144   -2.6212    0.0000 C   0  0  0  0  0  0  0  0  0  0  0  0
    4.8715   -2.9490    0.0000 C   0  0  0  0  0  0  0  0  0  0  0  0
    4.9661   -3.7686    0.0000 C   0  0  0  0  0  0  0  0  0  0  0  0
    4.3037   -4.2603    0.0000 C   0  0  0  0  0  0  0  0  0  0  0  0
    3.7359   -5.5716    0.0000 C   0  0  0  0  0  0  0  0  0  0  0  0
    3.8305   -6.3911    0.0000 O   0  0  0  0  0  0  0  0  0  0  0  0
    4.3983   -5.0799    0.0000 N   0  0  0  0  0  0  0  0  0  0  0  0
    5.1554   -5.4077    0.0000 C   0  0  0  0  0  0  0  0  0  0  0  0
    5.2500   -6.2272    0.0000 C   0  0  0  0  0  0  0  0  0  0  0  0
    6.0071   -6.5551    0.0000 C   0  0  0  0  0  0  0  0  0  0  0  0
    6.1017   -7.3746    0.0000 O   0  0  0  0  0  0  0  0  0  0  0  0
    6.6695   -6.0633    0.0000 O   0  0  0  0  0  0  0  0  0  0  0  0
    5.8178   -4.9159    0.0000 C   0  0  0  0  0  0  0  0  0  0  0  0
    5.7232   -4.0964    0.0000 O   0  0  0  0  0  0  0  0  0  0  0  0
    6.5749   -5.2438    0.0000 N   0  0  0  0  0  0  0  0  0  0  0  0
    7.2373   -4.7520    0.0000 C   0  0  0  0  0  0  0  0  0  0  0  0
    7.1427   -3.9325    0.0000 C   0  0  0  0  0  0  0  0  0  0  0  0
    7.8051   -3.4407    0.0000 O   0  0  0  0  0  0  0  0  0  0  0  0
    7.9944   -5.0799    0.0000 C   0  0  0  0  0  0  0  0  0  0  0  0
    8.6568   -4.5881    0.0000 C   0  0  0  0  0  0  0  0  0  0  0  0
    9.4139   -4.9159    0.0000 C   0  0  0  0  0  0  0  0  0  0  0  0
   10.0763   -4.4242    0.0000 N   0  0  0  0  0  0  0  0  0  0  0  0
    9.5085   -5.7355    0.0000 O   0  0  0  0  0  0  0  0  0  0  0  0
   -1.7529   -7.8663    0.0000 H   0  0  0  0  0  0  0  0  0  0  0  0
   -0.9958   -8.1942    0.0000 H   0  0  0  0  0  0  0  0  0  0  0  0
   -0.3334   -7.7024    0.0000 H   0  0  0  0  0  0  0  0  0  0  0  0
   -2.6992   -5.8994    0.0000 H   0  0  0  0  0  0  0  0  0  0  0  0
   -2.0368   -5.4077    0.0000 H   0  0  0  0  0  0  0  0  0  0  0  0
   -0.5617   -4.7738    0.0000 H   0  0  0  0  0  0  0  0  0  0  0  0
   -1.0031   -4.1792    0.0000 H   0  0  0  0  0  0  0  0  0  0  0  0
   -3.5510   -4.7520    0.0000 H   0  0  0  0  0  0  0  0  0  0  0  0
    0.0451   -4.7520    0.0000 H   0  0  0  0  0  0  0  0  0  0  0  0
    0.2344   -6.3911    0.0000 H   0  0  0  0  0  0  0  0  0  0  0  0
    0.4245   -7.3183    0.0000 H   0  0  0  0  0  0  0  0  0  0  0  0
    0.9424   -7.5425    0.0000 H   0  0  0  0  0  0  0  0  0  0  0  0
    2.5715   -6.9880    0.0000 H   0  0  0  0  0  0  0  0  0  0  0  0
    2.4110   -6.5551    0.0000 H   0  0  0  0  0  0  0  0  0  0  0  0
    2.2217   -4.9159    0.0000 H   0  0  0  0  0  0  0  0  0  0  0  0
    2.6486   -3.6335    0.0000 H   0  0  0  0  0  0  0  0  0  0  0  0
    2.1955   -3.9699    0.0000 H   0  0  0  0  0  0  0  0  0  0  0  0
    2.9815   -2.4352    0.0000 H   0  0  0  0  0  0  0  0  0  0  0  0
    4.0198   -1.8016    0.0000 H   0  0  0  0  0  0  0  0  0  0  0  0
    5.5339   -2.4573    0.0000 H   0  0  0  0  0  0  0  0  0  0  0  0
    5.0607   -4.5881    0.0000 H   0  0  0  0  0  0  0  0  0  0  0  0
    3.6412   -4.7520    0.0000 H   0  0  0  0  0  0  0  0  0  0  0  0
    4.4929   -5.8994    0.0000 H   0  0  0  0  0  0  0  0  0  0  0  0
    5.9124   -5.7355    0.0000 H   0  0  0  0  0  0  0  0  0  0  0  0
    4.6830   -6.8265    0.0000 H   0  0  0  0  0  0  0  0  0  0  0  0
    5.2009   -7.0508    0.0000 H   0  0  0  0  0  0  0  0  0  0  0  0
    6.6142   -8.0211    0.0000 H   0  0  0  0  0  0  0  0  0  0  0  0
    7.3320   -5.5716    0.0000 H   0  0  0  0  0  0  0  0  0  0  0  0
    6.4802   -4.4242    0.0000 H   0  0  0  0  0  0  0  0  0  0  0  0
    6.9072   -3.1418    0.0000 H   0  0  0  0  0  0  0  0  0  0  0  0
    6.4540   -3.4782    0.0000 H   0  0  0  0  0  0  0  0  0  0  0  0
    8.6198   -3.3105    0.0000 H   0  0  0  0  0  0  0  0  0  0  0  0
    8.2299   -5.8705    0.0000 H   0  0  0  0  0  0  0  0  0  0  0  0
    8.6830   -5.5342    0.0000 H   0  0  0  0  0  0  0  0  0  0  0  0
    8.9401   -3.8133    0.0000 H   0  0  0  0  0  0  0  0  0  0  0  0
    8.2044   -3.8982    0.0000 H   0  0  0  0  0  0  0  0  0  0  0  0
   10.8334   -4.7520    0.0000 H   0  0  0  0  0  0  0  0  0  0  0  0
    9.9817   -3.6047    0.0000 H   0  0  0  0  0  0  0  0  0  0  0  0
  1  2  1  0  0  0  0
  2  3  2  0  0  0  0
  2  4  1  0  0  0  0
  5  4  1  0  0  0  0
  5  6  1  0  0  0  0
  6  7  1  0  0  0  0
  7  8  1  0  0  0  0
  7  9  2  0  0  0  0
  5 10  1  0  0  0  0
 10 11  2  0  0  0  0
 10 12  1  0  0  0  0
 13 12  1  0  0  0  0
 13 14  1  0  0  0  0
 14 15  1  0  0  0  0
 13 16  1  0  0  0  0
 16 17  2  0  0  0  0
 16 18  1  0  0  0  0
 19 18  1  0  0  0  0
 19 20  1  0  0  0  0
 20 21  1  0  0  0  0
 21 22  4  0  0  0  0
 22 23  4  0  0  0  0
 23 24  4  0  0  0  0
 24 25  4  0  0  0  0
 25 26  4  0  0  0  0
 21 26  4  0  0  0  0
 19 27  1  0  0  0  0
 27 28  2  0  0  0  0
 27 29  1  0  0  0  0
 30 29  1  0  0  0  0
 30 31  1  0  0  0  0
 31 32  1  0  0  0  0
 32 33  1  0  0  0  0
 32 34  2  0  0  0  0
 30 35  1  0  0  0  0
 35 36  2  0  0  0  0
 35 37  1  0  0  0  0
 38 37  1  0  0  0  0
 38 39  1  0  0  0  0
 39 40  1  0  0  0  0
 38 41  1  0  0  0  0
 41 42  1  0  0  0  0
 42 43  1  0  0  0  0
 43 44  1  0  0  0  0
 43 45  2  0  0  0  0
  1 46  1  0  0  0  0
  1 47  1  0  0  0  0
  1 48  1  0  0  0  0
  4 49  1  0  0  0  0
  5 50  1  0  0  0  0
  6 51  1  0  0  0  0
  6 52  1  0  0  0  0
  8 53  1  0  0  0  0
 12 54  1  0  0  0  0
 13 55  1  0  0  0  0
 14 56  1  0  0  0  0
 14 57  1  0  0  0  0
 15 58  1  0  0  0  0
 18 59  1  0  0  0  0
 19 60  1  0  0  0  0
 20 61  1  0  0  0  0
 20 62  1  0  0  0  0
 22 63  1  0  0  0  0
 23 64  1  0  0  0  0
 24 65  1  0  0  0  0
 25 66  1  0  0  0  0
 26 67  1  0  0  0  0
 29 68  1  0  0  0  0
 30 69  1  0  0  0  0
 31 70  1  0  0  0  0
 31 71  1  0  0  0  0
 33 72  1  0  0  0  0
 37 73  1  0  0  0  0
 38 74  1  0  0  0  0
 39 75  1  0  0  0  0
 39 76  1  0  0  0  0
 40 77  1  0  0  0  0
 41 78  1  0  0  0  0
 41 79  1  0  0  0  0
 42 80  1  0  0  0  0
 42 81  1  0  0  0  0
 44 82  1  0  0  0  0
 44 83  1  0  0  0  0
M  END
> <Compound_name>


> <Standard Type>
Ki

> <Standard Relation>
=

> <Standard Value>
41240.0

> <Standard Units>
nM

> <Outcome>
Inactive

> <InChIKey>
HYACKLDVAOZFRF-UHFFFAOYSA-N

> <Molecule ChEMBL ID>


$$$$

  Mrv1817 04132013522D          

 97 99  0  0  1  0            999 V2000
    4.5511   -9.8241    0.0000 C   0  0  0  0  0  0  0  0  0  0  0  0
    3.7811   -9.5278    0.0000 C   0  0  0  0  0  0  0  0  0  0  0  0
    3.6528   -8.7128    0.0000 C   0  0  0  0  0  0  0  0  0  0  0  0
    3.1395  -10.0464    0.0000 C   0  0  0  0  0  0  0  0  0  0  0  0
    3.2678  -10.8613    0.0000 C   0  0  0  0  0  0  0  0  0  0  0  0
    2.6262  -11.3799    0.0000 N   0  0  0  0  0  0  0  0  0  0  0  0
    1.8563  -11.0836    0.0000 C   0  0  0  0  0  0  0  0  0  0  0  0
    1.7280  -10.2686    0.0000 O   0  0  0  0  0  0  0  0  0  0  0  0
    1.2147  -11.6022    0.0000 C   0  0  0  0  0  0  0  0  0  0  0  0
    0.4447  -11.3059    0.0000 N   0  0  0  0  0  0  0  0  0  0  0  0
   -0.1969  -11.8245    0.0000 C   0  0  0  0  0  0  0  0  0  0  0  0
   -0.0685  -12.6394    0.0000 O   0  0  0  0  0  0  0  0  0  0  0  0
   -0.9668  -11.5281    0.0000 C   0  0  0  0  0  0  0  0  0  0  0  0
   -1.0951  -10.7132    0.0000 C   0  0  0  0  0  0  0  0  0  0  0  0
   -1.6084  -12.0467    0.0000 N   0  0  0  0  0  0  0  0  0  0  0  0
   -2.3784  -11.7504    0.0000 C   0  0  0  0  0  0  0  0  0  0  0  0
   -3.0200  -12.2690    0.0000 O   0  0  0  0  0  0  0  0  0  0  0  0
   -2.5067  -10.9354    0.0000 C   0  0  0  0  0  0  0  0  0  0  0  0
   -3.2414  -10.5602    0.0000 C   0  0  0  0  0  0  0  0  0  0  0  0
   -3.1116   -9.7455    0.0000 C   0  0  0  0  0  0  0  0  0  0  0  0
   -3.6945   -9.1616    0.0000 C   0  0  0  0  0  0  0  0  0  0  0  0
   -2.2967   -9.6172    0.0000 O   0  0  0  0  0  0  0  0  0  0  0  0
   -1.9228  -10.3526    0.0000 N   0  0  0  0  0  0  0  0  0  0  0  0
    1.3430  -12.4172    0.0000 C   0  0  0  0  0  0  0  0  0  0  0  0
    0.7014  -12.9358    0.0000 C   0  0  0  0  0  0  0  0  0  0  0  0
    2.1129  -12.7135    0.0000 C   0  0  0  0  0  0  0  0  0  0  0  0
    4.0378  -11.1577    0.0000 C   0  0  0  0  0  0  0  0  0  0  0  0
    4.1661  -11.9726    0.0000 O   0  0  0  0  0  0  0  0  0  0  0  0
    4.6794  -10.6391    0.0000 N   0  0  0  0  0  0  0  0  0  0  0  0
    5.4493  -10.9354    0.0000 C   0  0  0  0  0  0  0  0  0  0  0  0
    5.5777  -11.7504    0.0000 C   0  0  0  0  0  0  0  0  0  0  0  0
    6.3476  -12.0467    0.0000 C   0  0  0  0  0  0  0  0  0  0  0  0
    7.0399  -11.5980    0.0000 C   0  0  0  0  0  0  0  0  0  0  0  0
    7.6806  -12.1178    0.0000 C   0  0  0  0  0  0  0  0  0  0  0  0
    7.3842  -12.8877    0.0000 N   0  0  0  0  0  0  0  0  0  0  0  0
    6.5604  -12.8438    0.0000 C   0  0  0  0  0  0  0  0  0  0  0  0
    6.0406  -13.4845    0.0000 O   0  0  0  0  0  0  0  0  0  0  0  0
    6.0909  -10.4168    0.0000 C   0  0  0  0  0  0  0  0  0  0  0  0
    6.8609  -10.7132    0.0000 C   0  0  0  0  0  0  0  0  0  0  0  0
    7.5025  -10.1945    0.0000 C   0  0  0  0  0  0  0  0  0  0  0  0
    7.3742   -9.3796    0.0000 O   0  0  0  0  0  0  0  0  0  0  0  0
    8.2724  -10.4909    0.0000 O   0  0  0  0  0  0  0  0  0  0  0  0
    8.9140   -9.9723    0.0000 C   0  0  0  0  0  0  0  0  0  0  0  0
    9.6840  -10.2686    0.0000 C   0  0  0  0  0  0  0  0  0  0  0  0
   10.3256   -9.7500    0.0000 C   0  0  0  0  0  0  0  0  0  0  0  0
   11.0955  -10.0464    0.0000 C   0  0  0  0  0  0  0  0  0  0  0  0
   11.2239  -10.8613    0.0000 C   0  0  0  0  0  0  0  0  0  0  0  0
   10.5822  -11.3799    0.0000 C   0  0  0  0  0  0  0  0  0  0  0  0
    9.8123  -11.0836    0.0000 C   0  0  0  0  0  0  0  0  0  0  0  0
    5.3210  -10.1205    0.0000 H   0  0  0  0  0  0  0  0  0  0  0  0
    5.1927   -9.3055    0.0000 H   0  0  0  0  0  0  0  0  0  0  0  0
    4.4228   -9.0092    0.0000 H   0  0  0  0  0  0  0  0  0  0  0  0
    3.0112   -9.2314    0.0000 H   0  0  0  0  0  0  0  0  0  0  0  0
    4.2944   -8.1942    0.0000 H   0  0  0  0  0  0  0  0  0  0  0  0
    3.5245   -7.8978    0.0000 H   0  0  0  0  0  0  0  0  0  0  0  0
    2.8829   -8.4165    0.0000 H   0  0  0  0  0  0  0  0  0  0  0  0
    2.3298   -9.8882    0.0000 H   0  0  0  0  0  0  0  0  0  0  0  0
    2.4176  -10.4457    0.0000 H   0  0  0  0  0  0  0  0  0  0  0  0
    3.9095  -10.3427    0.0000 H   0  0  0  0  0  0  0  0  0  0  0  0
    2.7546  -12.1949    0.0000 H   0  0  0  0  0  0  0  0  0  0  0  0
    1.0864  -10.7872    0.0000 H   0  0  0  0  0  0  0  0  0  0  0  0
   -0.0739  -10.6642    0.0000 H   0  0  0  0  0  0  0  0  0  0  0  0
   -0.3252  -11.0095    0.0000 H   0  0  0  0  0  0  0  0  0  0  0  0
   -0.4461  -10.2039    0.0000 H   0  0  0  0  0  0  0  0  0  0  0  0
   -1.1998   -9.8948    0.0000 H   0  0  0  0  0  0  0  0  0  0  0  0
   -1.7479  -11.2177    0.0000 H   0  0  0  0  0  0  0  0  0  0  0  0
   -1.4801  -12.8617    0.0000 H   0  0  0  0  0  0  0  0  0  0  0  0
   -3.9768  -10.9341    0.0000 H   0  0  0  0  0  0  0  0  0  0  0  0
   -3.1106   -8.5788    0.0000 H   0  0  0  0  0  0  0  0  0  0  0  0
   -4.2773   -8.5777    0.0000 H   0  0  0  0  0  0  0  0  0  0  0  0
   -4.2784   -9.7444    0.0000 H   0  0  0  0  0  0  0  0  0  0  0  0
    0.5731  -12.1208    0.0000 H   0  0  0  0  0  0  0  0  0  0  0  0
    0.0598  -13.4544    0.0000 H   0  0  0  0  0  0  0  0  0  0  0  0
    0.8297  -13.7507    0.0000 H   0  0  0  0  0  0  0  0  0  0  0  0
    1.4713  -13.2321    0.0000 H   0  0  0  0  0  0  0  0  0  0  0  0
    2.3808  -13.4938    0.0000 H   0  0  0  0  0  0  0  0  0  0  0  0
    2.8197  -13.1391    0.0000 H   0  0  0  0  0  0  0  0  0  0  0  0
    1.9846  -11.8986    0.0000 H   0  0  0  0  0  0  0  0  0  0  0  0
    4.8077  -11.4540    0.0000 H   0  0  0  0  0  0  0  0  0  0  0  0
    6.2193  -11.2318    0.0000 H   0  0  0  0  0  0  0  0  0  0  0  0
    5.0358  -12.3725    0.0000 H   0  0  0  0  0  0  0  0  0  0  0  0
    5.5625  -12.5752    0.0000 H   0  0  0  0  0  0  0  0  0  0  0  0
    7.1175  -12.3431    0.0000 H   0  0  0  0  0  0  0  0  0  0  0  0
    7.8573  -11.4864    0.0000 H   0  0  0  0  0  0  0  0  0  0  0  0
    7.5177  -10.9255    0.0000 H   0  0  0  0  0  0  0  0  0  0  0  0
    8.3222  -12.6364    0.0000 H   0  0  0  0  0  0  0  0  0  0  0  0
    8.5049  -12.0853    0.0000 H   0  0  0  0  0  0  0  0  0  0  0  0
    7.8329  -13.5800    0.0000 H   0  0  0  0  0  0  0  0  0  0  0  0
    6.3873   -9.6469    0.0000 H   0  0  0  0  0  0  0  0  0  0  0  0
    6.5813  -11.4893    0.0000 H   0  0  0  0  0  0  0  0  0  0  0  0
    9.1651   -9.1864    0.0000 H   0  0  0  0  0  0  0  0  0  0  0  0
    8.4336   -9.3016    0.0000 H   0  0  0  0  0  0  0  0  0  0  0  0
   10.1973   -8.9351    0.0000 H   0  0  0  0  0  0  0  0  0  0  0  0
   11.7372   -9.5278    0.0000 H   0  0  0  0  0  0  0  0  0  0  0  0
   11.9938  -11.1577    0.0000 H   0  0  0  0  0  0  0  0  0  0  0  0
   10.7106  -12.1949    0.0000 H   0  0  0  0  0  0  0  0  0  0  0  0
    9.1707  -11.6022    0.0000 H   0  0  0  0  0  0  0  0  0  0  0  0
  1  2  1  0  0  0  0
  2  3  1  0  0  0  0
  2  4  1  0  0  0  0
  5  4  1  0  0  0  0
  5  6  1  0  0  0  0
  6  7  1  0  0  0  0
  7  8  2  0  0  0  0
  9  7  1  0  0  0  0
  9 10  1  0  0  0  0
 10 11  1  0  0  0  0
 11 12  2  0  0  0  0
 13 11  1  0  0  0  0
 13 14  1  0  0  0  0
 13 15  1  0  0  0  0
 15 16  1  0  0  0  0
 16 17  2  0  0  0  0
 16 18  1  0  0  0  0
 18 19  4  0  0  0  0
 19 20  4  0  0  0  0
 20 21  1  0  0  0  0
 20 22  4  0  0  0  0
 22 23  4  0  0  0  0
 18 23  4  0  0  0  0
  9 24  1  0  0  0  0
 24 25  1  0  0  0  0
 24 26  1  0  0  0  0
  5 27  1  0  0  0  0
 27 28  2  0  0  0  0
 27 29  1  0  0  0  0
 30 29  1  0  0  0  0
 30 31  1  0  0  0  0
 32 31  1  0  0  0  0
 32 33  1  0  0  0  0
 33 34  1  0  0  0  0
 34 35  1  0  0  0  0
 35 36  1  0  0  0  0
 32 36  1  0  0  0  0
 36 37  2  0  0  0  0
 38 30  1  4  0  0  0
 38 39  2  0  0  0  0
 39 40  1  0  0  0  0
 40 41  2  0  0  0  0
 40 42  1  0  0  0  0
 42 43  1  0  0  0  0
 43 44  1  0  0  0  0
 44 45  4  0  0  0  0
 45 46  4  0  0  0  0
 46 47  4  0  0  0  0
 47 48  4  0  0  0  0
 48 49  4  0  0  0  0
 44 49  4  0  0  0  0
  1 50  1  0  0  0  0
  1 51  1  0  0  0  0
  1 52  1  0  0  0  0
  2 53  1  0  0  0  0
  3 54  1  0  0  0  0
  3 55  1  0  0  0  0
  3 56  1  0  0  0  0
  4 57  1  0  0  0  0
  4 58  1  0  0  0  0
  5 59  1  0  0  0  0
  6 60  1  0  0  0  0
  9 61  1  0  0  0  0
 10 62  1  0  0  0  0
 13 63  1  0  0  0  0
 14 64  1  0  0  0  0
 14 65  1  0  0  0  0
 14 66  1  0  0  0  0
 15 67  1  0  0  0  0
 19 68  1  0  0  0  0
 21 69  1  0  0  0  0
 21 70  1  0  0  0  0
 21 71  1  0  0  0  0
 24 72  1  0  0  0  0
 25 73  1  0  0  0  0
 25 74  1  0  0  0  0
 25 75  1  0  0  0  0
 26 76  1  0  0  0  0
 26 77  1  0  0  0  0
 26 78  1  0  0  0  0
 29 79  1  0  0  0  0
 30 80  1  0  0  0  0
 31 81  1  0  0  0  0
 31 82  1  0  0  0  0
 32 83  1  0  0  0  0
 33 84  1  0  0  0  0
 33 85  1  0  0  0  0
 34 86  1  0  0  0  0
 34 87  1  0  0  0  0
 35 88  1  0  0  0  0
 38 89  1  0  0  0  0
 39 90  1  0  0  0  0
 43 91  1  0  0  0  0
 43 92  1  0  0  0  0
 45 93  1  0  0  0  0
 46 94  1  0  0  0  0
 47 95  1  0  0  0  0
 48 96  1  0  0  0  0
 49 97  1  0  0  0  0
M  END
> <Compound_name>


> <Standard Type>
Ki

> <Standard Relation>
=

> <Standard Value>
1900.0

> <Standard Units>
nM

> <Outcome>
Active

> <InChIKey>
IDBWWEGDLCFCTD-UHFFFAOYSA-N

> <Molecule ChEMBL ID>


$$$$

  Mrv1817 04132013522D          

 63 65  0  0  1  0            999 V2000
    0.8603    0.3643    0.0000 C   0  0  0  0  0  0  0  0  0  0  0  0
    0.1458   -0.0482    0.0000 C   0  0  0  0  0  0  0  0  0  0  0  0
   -0.2667    0.6662    0.0000 C   0  0  0  0  0  0  0  0  0  0  0  0
    0.5583   -0.7627    0.0000 C   0  0  0  0  0  0  0  0  0  0  0  0
   -0.5686   -0.4607    0.0000 N   0  0  0  0  0  0  0  0  0  0  0  0
   -1.2831   -0.0482    0.0000 C   0  0  0  0  0  0  0  0  0  0  0  0
   -1.2831    0.7768    0.0000 O   0  0  0  0  0  0  0  0  0  0  0  0
   -1.9976   -0.4607    0.0000 C   0  0  0  0  0  0  0  0  0  0  0  0
   -1.9976   -1.2857    0.0000 N   0  0  0  0  0  0  0  0  0  0  0  0
   -1.2831   -1.6982    0.0000 C   0  0  0  0  0  0  0  0  0  0  0  0
   -0.5686   -1.2857    0.0000 O   0  0  0  0  0  0  0  0  0  0  0  0
   -1.2831   -2.5232    0.0000 C   0  0  0  0  0  0  0  0  0  0  0  0
   -1.9505   -3.0082    0.0000 C   0  0  0  0  0  0  0  0  0  0  0  0
   -1.6956   -3.7928    0.0000 C   0  0  0  0  0  0  0  0  0  0  0  0
   -0.8706   -3.7928    0.0000 C   0  0  0  0  0  0  0  0  0  0  0  0
   -0.6157   -3.0082    0.0000 O   0  0  0  0  0  0  0  0  0  0  0  0
   -2.7120   -1.6982    0.0000 C   0  0  0  0  0  0  0  0  0  0  0  0
   -2.7120   -2.5232    0.0000 C   0  0  0  0  0  0  0  0  0  0  0  0
   -3.4265   -2.9357    0.0000 C   0  0  0  0  0  0  0  0  0  0  0  0
   -4.1410   -2.5232    0.0000 C   0  0  0  0  0  0  0  0  0  0  0  0
   -4.1410   -1.6982    0.0000 C   0  0  0  0  0  0  0  0  0  0  0  0
   -3.4265   -1.2857    0.0000 C   0  0  0  0  0  0  0  0  0  0  0  0
   -4.8555   -2.9357    0.0000 C   0  0  0  0  0  0  0  0  0  0  0  0
   -5.5699   -3.3482    0.0000 C   0  0  0  0  0  0  0  0  0  0  0  0
   -5.2680   -2.2213    0.0000 C   0  0  0  0  0  0  0  0  0  0  0  0
   -4.4430   -3.6502    0.0000 C   0  0  0  0  0  0  0  0  0  0  0  0
   -2.7120   -0.0482    0.0000 C   0  0  0  0  0  0  0  0  0  0  0  0
   -3.4265   -0.4607    0.0000 C   0  0  0  0  0  0  0  0  0  0  0  0
   -4.1410   -0.0482    0.0000 C   0  0  0  0  0  0  0  0  0  0  0  0
   -4.1410    0.7768    0.0000 C   0  0  0  0  0  0  0  0  0  0  0  0
   -3.4265    1.1893    0.0000 N   0  0  0  0  0  0  0  0  0  0  0  0
   -2.7120    0.7768    0.0000 C   0  0  0  0  0  0  0  0  0  0  0  0
    1.2728   -0.3502    0.0000 H   0  0  0  0  0  0  0  0  0  0  0  0
    1.5748    0.7768    0.0000 H   0  0  0  0  0  0  0  0  0  0  0  0
    0.4478    1.0787    0.0000 H   0  0  0  0  0  0  0  0  0  0  0  0
   -0.3743    1.4842    0.0000 H   0  0  0  0  0  0  0  0  0  0  0  0
   -1.0635    0.8798    0.0000 H   0  0  0  0  0  0  0  0  0  0  0  0
   -0.7689    0.0117    0.0000 H   0  0  0  0  0  0  0  0  0  0  0  0
   -0.2596   -0.8704    0.0000 H   0  0  0  0  0  0  0  0  0  0  0  0
    0.3448   -1.5596    0.0000 H   0  0  0  0  0  0  0  0  0  0  0  0
    1.2129   -1.2649    0.0000 H   0  0  0  0  0  0  0  0  0  0  0  0
   -1.2831   -0.8732    0.0000 H   0  0  0  0  0  0  0  0  0  0  0  0
   -2.7120   -0.8732    0.0000 H   0  0  0  0  0  0  0  0  0  0  0  0
   -2.6028   -3.5133    0.0000 H   0  0  0  0  0  0  0  0  0  0  0  0
   -1.8184   -4.6086    0.0000 H   0  0  0  0  0  0  0  0  0  0  0  0
   -0.3857   -4.4602    0.0000 H   0  0  0  0  0  0  0  0  0  0  0  0
   -1.9888   -2.1264    0.0000 H   0  0  0  0  0  0  0  0  0  0  0  0
   -3.4265   -3.7607    0.0000 H   0  0  0  0  0  0  0  0  0  0  0  0
   -4.8555   -1.2857    0.0000 H   0  0  0  0  0  0  0  0  0  0  0  0
   -3.4265   -2.1107    0.0000 H   0  0  0  0  0  0  0  0  0  0  0  0
   -5.9824   -2.6338    0.0000 H   0  0  0  0  0  0  0  0  0  0  0  0
   -6.2844   -3.7607    0.0000 H   0  0  0  0  0  0  0  0  0  0  0  0
   -5.1574   -4.0627    0.0000 H   0  0  0  0  0  0  0  0  0  0  0  0
   -4.4500   -2.1136    0.0000 H   0  0  0  0  0  0  0  0  0  0  0  0
   -5.0544   -1.4244    0.0000 H   0  0  0  0  0  0  0  0  0  0  0  0
   -5.9225   -1.7190    0.0000 H   0  0  0  0  0  0  0  0  0  0  0  0
   -4.3353   -4.4682    0.0000 H   0  0  0  0  0  0  0  0  0  0  0  0
   -3.6461   -3.8637    0.0000 H   0  0  0  0  0  0  0  0  0  0  0  0
   -3.9407   -2.9957    0.0000 H   0  0  0  0  0  0  0  0  0  0  0  0
   -4.1410   -0.8732    0.0000 H   0  0  0  0  0  0  0  0  0  0  0  0
   -4.9660   -0.0482    0.0000 H   0  0  0  0  0  0  0  0  0  0  0  0
   -4.8555    1.1893    0.0000 H   0  0  0  0  0  0  0  0  0  0  0  0
   -1.9976    1.1893    0.0000 H   0  0  0  0  0  0  0  0  0  0  0  0
  1  2  1  0  0  0  0
  2  3  1  0  0  0  0
  2  4  1  0  0  0  0
  2  5  1  0  0  0  0
  5  6  1  0  0  0  0
  6  7  2  0  0  0  0
  8  6  1  0  0  0  0
  8  9  1  0  0  0  0
  9 10  1  0  0  0  0
 10 11  2  0  0  0  0
 10 12  1  0  0  0  0
 12 13  4  0  0  0  0
 13 14  4  0  0  0  0
 14 15  4  0  0  0  0
 15 16  4  0  0  0  0
 12 16  4  0  0  0  0
  9 17  1  0  0  0  0
 17 18  4  0  0  0  0
 18 19  4  0  0  0  0
 19 20  4  0  0  0  0
 20 21  4  0  0  0  0
 21 22  4  0  0  0  0
 17 22  4  0  0  0  0
 20 23  1  0  0  0  0
 23 24  1  0  0  0  0
 23 25  1  0  0  0  0
 23 26  1  0  0  0  0
  8 27  1  0  0  0  0
 27 28  4  0  0  0  0
 28 29  4  0  0  0  0
 29 30  4  0  0  0  0
 30 31  4  0  0  0  0
 31 32  4  0  0  0  0
 27 32  4  0  0  0  0
  1 33  1  0  0  0  0
  1 34  1  0  0  0  0
  1 35  1  0  0  0  0
  3 36  1  0  0  0  0
  3 37  1  0  0  0  0
  3 38  1  0  0  0  0
  4 39  1  0  0  0  0
  4 40  1  0  0  0  0
  4 41  1  0  0  0  0
  5 42  1  0  0  0  0
  8 43  1  0  0  0  0
 13 44  1  0  0  0  0
 14 45  1  0  0  0  0
 15 46  1  0  0  0  0
 18 47  1  0  0  0  0
 19 48  1  0  0  0  0
 21 49  1  0  0  0  0
 22 50  1  0  0  0  0
 24 51  1  0  0  0  0
 24 52  1  0  0  0  0
 24 53  1  0  0  0  0
 25 54  1  0  0  0  0
 25 55  1  0  0  0  0
 25 56  1  0  0  0  0
 26 57  1  0  0  0  0
 26 58  1  0  0  0  0
 26 59  1  0  0  0  0
 28 60  1  0  0  0  0
 29 61  1  0  0  0  0
 30 62  1  0  0  0  0
 32 63  1  0  0  0  0
M  END
> <Compound_name>
N-[(1R)-2-(tert-butylamino)-2-oxo-1-pyridin-3-ylethyl]-N-(4-tert-butylphenyl)furan-2-carboxamide

> <Standard Type>
IC50

> <Standard Relation>
=

> <Standard Value>
4800.0

> <Standard Units>
nM

> <Outcome>
Active

> <InChIKey>
JXGIYKRRPGCLFV-UHFFFAOYSA-N

> <Molecule ChEMBL ID>


$$$$

  Mrv1817 04132013522D          

 76 75  0  0  1  0            999 V2000
   14.8017    5.2677    0.0000 C   0  0  0  0  0  0  0  0  0  0  0  0
   14.1393    4.7759    0.0000 C   0  0  0  0  0  0  0  0  0  0  0  0
   13.3822    5.1037    0.0000 O   0  0  0  0  0  0  0  0  0  0  0  0
   14.2339    3.9564    0.0000 C   0  0  0  0  0  0  0  0  0  0  0  0
   13.5715    3.4646    0.0000 N   0  0  0  0  0  0  0  0  0  0  0  0
   12.8144    3.7925    0.0000 C   0  0  0  0  0  0  0  0  0  0  0  0
   12.7198    4.6120    0.0000 O   0  0  0  0  0  0  0  0  0  0  0  0
   12.1520    3.3007    0.0000 C   0  0  0  0  0  0  0  0  0  0  0  0
   12.2466    2.4812    0.0000 C   0  0  0  0  0  0  0  0  0  0  0  0
   13.0037    2.1534    0.0000 O   0  0  0  0  0  0  0  0  0  0  0  0
   11.3949    3.6285    0.0000 N   0  0  0  0  0  0  0  0  0  0  0  0
   10.7324    3.1368    0.0000 C   0  0  0  0  0  0  0  0  0  0  0  0
   10.8271    2.3173    0.0000 O   0  0  0  0  0  0  0  0  0  0  0  0
    9.9754    3.4646    0.0000 C   0  0  0  0  0  0  0  0  0  0  0  0
    9.3129    2.9729    0.0000 C   0  0  0  0  0  0  0  0  0  0  0  0
    9.4076    2.1534    0.0000 C   0  0  0  0  0  0  0  0  0  0  0  0
   10.1646    1.8255    0.0000 N   0  0  0  0  0  0  0  0  0  0  0  0
    8.7451    1.6616    0.0000 O   0  0  0  0  0  0  0  0  0  0  0  0
    9.8807    4.2842    0.0000 N   0  0  0  0  0  0  0  0  0  0  0  0
    9.1237    4.6120    0.0000 C   0  0  0  0  0  0  0  0  0  0  0  0
    8.4612    4.1203    0.0000 C   0  0  0  0  0  0  0  0  0  0  0  0
    9.0290    5.4316    0.0000 O   0  0  0  0  0  0  0  0  0  0  0  0
   14.9910    3.6285    0.0000 C   0  0  0  0  0  0  0  0  0  0  0  0
   15.0856    2.8090    0.0000 O   0  0  0  0  0  0  0  0  0  0  0  0
   15.6534    4.1203    0.0000 N   0  0  0  0  0  0  0  0  0  0  0  0
   16.4105    3.7925    0.0000 C   0  0  0  0  0  0  0  0  0  0  0  0
   16.5051    2.9729    0.0000 C   0  0  0  0  0  0  0  0  0  0  0  0
   17.2622    2.6451    0.0000 O   0  0  0  0  0  0  0  0  0  0  0  0
   17.0729    4.2842    0.0000 C   0  0  0  0  0  0  0  0  0  0  0  0
   16.9783    5.1037    0.0000 O   0  0  0  0  0  0  0  0  0  0  0  0
   17.8300    3.9564    0.0000 N   0  0  0  0  0  0  0  0  0  0  0  0
   18.4924    4.4481    0.0000 C   0  0  0  0  0  0  0  0  0  0  0  0
   18.3978    5.2677    0.0000 C   0  0  0  0  0  0  0  0  0  0  0  0
   19.0602    5.7594    0.0000 O   0  0  0  0  0  0  0  0  0  0  0  0
   19.2495    4.1203    0.0000 C   0  0  0  0  0  0  0  0  0  0  0  0
   19.9119    4.6120    0.0000 C   0  0  0  0  0  0  0  0  0  0  0  0
   20.6690    4.2842    0.0000 C   0  0  0  0  0  0  0  0  0  0  0  0
   21.3315    4.7759    0.0000 N   0  0  0  0  0  0  0  0  0  0  0  0
   20.7637    3.4646    0.0000 O   0  0  0  0  0  0  0  0  0  0  0  0
   15.2934    4.6052    0.0000 H   0  0  0  0  0  0  0  0  0  0  0  0
   15.4641    5.7594    0.0000 H   0  0  0  0  0  0  0  0  0  0  0  0
   14.3100    5.9301    0.0000 H   0  0  0  0  0  0  0  0  0  0  0  0
   14.0446    5.5955    0.0000 H   0  0  0  0  0  0  0  0  0  0  0  0
   12.8905    5.7662    0.0000 H   0  0  0  0  0  0  0  0  0  0  0  0
   13.4768    4.2842    0.0000 H   0  0  0  0  0  0  0  0  0  0  0  0
   13.6661    2.6451    0.0000 H   0  0  0  0  0  0  0  0  0  0  0  0
   12.9090    2.9729    0.0000 H   0  0  0  0  0  0  0  0  0  0  0  0
   11.4339    2.3390    0.0000 H   0  0  0  0  0  0  0  0  0  0  0  0
   11.8753    1.7444    0.0000 H   0  0  0  0  0  0  0  0  0  0  0  0
   13.0983    1.3338    0.0000 H   0  0  0  0  0  0  0  0  0  0  0  0
   11.3003    4.4481    0.0000 H   0  0  0  0  0  0  0  0  0  0  0  0
   10.0700    2.6451    0.0000 H   0  0  0  0  0  0  0  0  0  0  0  0
    8.7835    3.6056    0.0000 H   0  0  0  0  0  0  0  0  0  0  0  0
    8.4893    2.9261    0.0000 H   0  0  0  0  0  0  0  0  0  0  0  0
    9.8814    1.0507    0.0000 H   0  0  0  0  0  0  0  0  0  0  0  0
   10.6170    1.1356    0.0000 H   0  0  0  0  0  0  0  0  0  0  0  0
   10.5432    4.7759    0.0000 H   0  0  0  0  0  0  0  0  0  0  0  0
    8.2763    4.9243    0.0000 H   0  0  0  0  0  0  0  0  0  0  0  0
    7.6505    4.2732    0.0000 H   0  0  0  0  0  0  0  0  0  0  0  0
    7.9962    3.4388    0.0000 H   0  0  0  0  0  0  0  0  0  0  0  0
   16.1660    4.7667    0.0000 H   0  0  0  0  0  0  0  0  0  0  0  0
   15.7481    3.3007    0.0000 H   0  0  0  0  0  0  0  0  0  0  0  0
   15.9381    2.3736    0.0000 H   0  0  0  0  0  0  0  0  0  0  0  0
   16.4560    2.1494    0.0000 H   0  0  0  0  0  0  0  0  0  0  0  0
   18.0851    2.7039    0.0000 H   0  0  0  0  0  0  0  0  0  0  0  0
   17.9246    3.1368    0.0000 H   0  0  0  0  0  0  0  0  0  0  0  0
   17.7354    4.7759    0.0000 H   0  0  0  0  0  0  0  0  0  0  0  0
   18.1623    6.0583    0.0000 H   0  0  0  0  0  0  0  0  0  0  0  0
   17.7092    5.7220    0.0000 H   0  0  0  0  0  0  0  0  0  0  0  0
   19.8749    5.8897    0.0000 H   0  0  0  0  0  0  0  0  0  0  0  0
   18.9663    3.3454    0.0000 H   0  0  0  0  0  0  0  0  0  0  0  0
   19.7019    3.4304    0.0000 H   0  0  0  0  0  0  0  0  0  0  0  0
   20.1952    5.3869    0.0000 H   0  0  0  0  0  0  0  0  0  0  0  0
   19.4596    5.3019    0.0000 H   0  0  0  0  0  0  0  0  0  0  0  0
   22.0885    4.4481    0.0000 H   0  0  0  0  0  0  0  0  0  0  0  0
   21.2368    5.5955    0.0000 H   0  0  0  0  0  0  0  0  0  0  0  0
  2  1  1  0  0  0  0
  2  3  1  0  0  0  0
  2  4  1  0  0  0  0
  4  5  1  0  0  0  0
  5  6  1  0  0  0  0
  6  7  2  0  0  0  0
  8  6  1  0  0  0  0
  8  9  1  0  0  0  0
  9 10  1  0  0  0  0
  8 11  1  0  0  0  0
 11 12  1  0  0  0  0
 12 13  2  0  0  0  0
 14 12  1  0  0  0  0
 14 15  1  0  0  0  0
 15 16  1  0  0  0  0
 16 17  1  0  0  0  0
 16 18  2  0  0  0  0
 14 19  1  0  0  0  0
 19 20  1  0  0  0  0
 20 21  1  0  0  0  0
 20 22  2  0  0  0  0
  4 23  1  0  0  0  0
 23 24  2  0  0  0  0
 23 25  1  0  0  0  0
 26 25  1  0  0  0  0
 26 27  1  0  0  0  0
 27 28  1  0  0  0  0
 26 29  1  0  0  0  0
 29 30  2  0  0  0  0
 29 31  1  0  0  0  0
 32 31  1  0  0  0  0
 32 33  1  0  0  0  0
 33 34  1  0  0  0  0
 32 35  1  0  0  0  0
 35 36  1  0  0  0  0
 36 37  1  0  0  0  0
 37 38  1  0  0  0  0
 37 39  2  0  0  0  0
  1 40  1  0  0  0  0
  1 41  1  0  0  0  0
  1 42  1  0  0  0  0
  2 43  1  0  0  0  0
  3 44  1  0  0  0  0
  4 45  1  0  0  0  0
  5 46  1  0  0  0  0
  8 47  1  0  0  0  0
  9 48  1  0  0  0  0
  9 49  1  0  0  0  0
 10 50  1  0  0  0  0
 11 51  1  0  0  0  0
 14 52  1  0  0  0  0
 15 53  1  0  0  0  0
 15 54  1  0  0  0  0
 17 55  1  0  0  0  0
 17 56  1  0  0  0  0
 19 57  1  0  0  0  0
 21 58  1  0  0  0  0
 21 59  1  0  0  0  0
 21 60  1  0  0  0  0
 25 61  1  0  0  0  0
 26 62  1  0  0  0  0
 27 63  1  0  0  0  0
 27 64  1  0  0  0  0
 28 65  1  0  0  0  0
 31 66  1  0  0  0  0
 32 67  1  0  0  0  0
 33 68  1  0  0  0  0
 33 69  1  0  0  0  0
 34 70  1  0  0  0  0
 35 71  1  0  0  0  0
 35 72  1  0  0  0  0
 36 73  1  0  0  0  0
 36 74  1  0  0  0  0
 38 75  1  0  0  0  0
 38 76  1  0  0  0  0
M  END
> <Compound_name>
(2S)-2-acetamido-N-[(2S)-1-[[(2S,3R)-1-[[(2S)-1-[[(2S)-5-amino-1-hydroxy-5-oxopentan-2-yl]amino]-3-hydroxy-1-oxopropan-2-yl]amino]-3-hydroxy-1-oxobutan-2-yl]amino]-3-hydroxy-1-oxopropan-2-yl]butanediamide

> <Standard Type>
Ki

> <Standard Relation>
=

> <Standard Value>
40980.0

> <Standard Units>
nM

> <Outcome>
Inactive

> <InChIKey>
KCJGBQVFNXUOCD-UHFFFAOYSA-N

> <Molecule ChEMBL ID>


$$$$

  Mrv1817 04132013522D          

 86 85  0  0  1  0            999 V2000
   20.3986    4.3657    0.0000 C   0  0  0  0  0  0  0  0  0  0  0  0
   20.3986    5.1907    0.0000 C   0  0  0  0  0  0  0  0  0  0  0  0
   21.1131    5.6032    0.0000 C   0  0  0  0  0  0  0  0  0  0  0  0
   19.6842    5.6032    0.0000 C   0  0  0  0  0  0  0  0  0  0  0  0
   19.6842    6.4282    0.0000 C   0  0  0  0  0  0  0  0  0  0  0  0
   18.9697    6.8407    0.0000 N   0  0  0  0  0  0  0  0  0  0  0  0
   18.2552    6.4282    0.0000 C   0  0  0  0  0  0  0  0  0  0  0  0
   18.2552    5.6032    0.0000 O   0  0  0  0  0  0  0  0  0  0  0  0
   17.5408    6.8407    0.0000 C   0  0  0  0  0  0  0  0  0  0  0  0
   16.8263    6.4282    0.0000 N   0  0  0  0  0  0  0  0  0  0  0  0
   16.1118    6.8407    0.0000 C   0  0  0  0  0  0  0  0  0  0  0  0
   16.1118    7.6657    0.0000 O   0  0  0  0  0  0  0  0  0  0  0  0
   15.3973    6.4282    0.0000 C   0  0  0  0  0  0  0  0  0  0  0  0
   15.3973    5.6032    0.0000 C   0  0  0  0  0  0  0  0  0  0  0  0
   14.6829    5.1907    0.0000 O   0  0  0  0  0  0  0  0  0  0  0  0
   14.6829    6.8407    0.0000 N   0  0  0  0  0  0  0  0  0  0  0  0
   13.9684    6.4282    0.0000 C   0  0  0  0  0  0  0  0  0  0  0  0
   13.9684    5.6032    0.0000 O   0  0  0  0  0  0  0  0  0  0  0  0
   13.2539    6.8407    0.0000 C   0  0  0  0  0  0  0  0  0  0  0  0
   12.5395    6.4282    0.0000 C   0  0  0  0  0  0  0  0  0  0  0  0
   11.8250    6.8407    0.0000 C   0  0  0  0  0  0  0  0  0  0  0  0
   11.1105    6.4282    0.0000 C   0  0  0  0  0  0  0  0  0  0  0  0
   10.3960    6.8407    0.0000 O   0  0  0  0  0  0  0  0  0  0  0  0
   11.1105    5.6032    0.0000 O   0  0  0  0  0  0  0  0  0  0  0  0
   13.2539    7.6657    0.0000 N   0  0  0  0  0  0  0  0  0  0  0  0
   12.5395    8.0782    0.0000 C   0  0  0  0  0  0  0  0  0  0  0  0
   11.8250    7.6657    0.0000 C   0  0  0  0  0  0  0  0  0  0  0  0
   12.5395    8.9032    0.0000 O   0  0  0  0  0  0  0  0  0  0  0  0
   17.5408    7.6657    0.0000 C   0  0  0  0  0  0  0  0  0  0  0  0
   16.8263    8.0782    0.0000 C   0  0  0  0  0  0  0  0  0  0  0  0
   18.2552    8.0782    0.0000 O   0  0  0  0  0  0  0  0  0  0  0  0
   20.3986    6.8407    0.0000 C   0  0  0  0  0  0  0  0  0  0  0  0
   20.3986    7.6657    0.0000 O   0  0  0  0  0  0  0  0  0  0  0  0
   21.1131    6.4282    0.0000 N   0  0  0  0  0  0  0  0  0  0  0  0
   21.8276    6.8407    0.0000 C   0  0  0  0  0  0  0  0  0  0  0  0
   21.8276    7.6657    0.0000 C   0  0  0  0  0  0  0  0  0  0  0  0
   22.5420    8.0782    0.0000 O   0  0  0  0  0  0  0  0  0  0  0  0
   22.5420    6.4282    0.0000 C   0  0  0  0  0  0  0  0  0  0  0  0
   23.2565    6.8407    0.0000 C   0  0  0  0  0  0  0  0  0  0  0  0
   23.9710    6.4282    0.0000 C   0  0  0  0  0  0  0  0  0  0  0  0
   24.6855    6.8407    0.0000 N   0  0  0  0  0  0  0  0  0  0  0  0
   23.9710    5.6032    0.0000 O   0  0  0  0  0  0  0  0  0  0  0  0
   19.5736    4.3657    0.0000 H   0  0  0  0  0  0  0  0  0  0  0  0
   20.3986    3.5407    0.0000 H   0  0  0  0  0  0  0  0  0  0  0  0
   21.2236    4.3657    0.0000 H   0  0  0  0  0  0  0  0  0  0  0  0
   21.1131    4.7782    0.0000 H   0  0  0  0  0  0  0  0  0  0  0  0
   21.8884    5.3210    0.0000 H   0  0  0  0  0  0  0  0  0  0  0  0
   21.8884    5.8853    0.0000 H   0  0  0  0  0  0  0  0  0  0  0  0
   20.3986    6.0157    0.0000 H   0  0  0  0  0  0  0  0  0  0  0  0
   18.8606    5.5552    0.0000 H   0  0  0  0  0  0  0  0  0  0  0  0
   19.2308    4.9139    0.0000 H   0  0  0  0  0  0  0  0  0  0  0  0
   18.9697    6.0157    0.0000 H   0  0  0  0  0  0  0  0  0  0  0  0
   18.9697    7.6657    0.0000 H   0  0  0  0  0  0  0  0  0  0  0  0
   17.5408    6.0157    0.0000 H   0  0  0  0  0  0  0  0  0  0  0  0
   16.4138    5.7137    0.0000 H   0  0  0  0  0  0  0  0  0  0  0  0
   16.1118    6.0157    0.0000 H   0  0  0  0  0  0  0  0  0  0  0  0
   15.5406    4.7907    0.0000 H   0  0  0  0  0  0  0  0  0  0  0  0
   16.0293    5.0729    0.0000 H   0  0  0  0  0  0  0  0  0  0  0  0
   14.3019    4.4589    0.0000 H   0  0  0  0  0  0  0  0  0  0  0  0
   14.6829    7.6657    0.0000 H   0  0  0  0  0  0  0  0  0  0  0  0
   13.2539    6.0157    0.0000 H   0  0  0  0  0  0  0  0  0  0  0  0
   11.9075    5.8979    0.0000 H   0  0  0  0  0  0  0  0  0  0  0  0
   12.3962    5.6157    0.0000 H   0  0  0  0  0  0  0  0  0  0  0  0
   12.5395    7.2532    0.0000 H   0  0  0  0  0  0  0  0  0  0  0  0
   11.1105    7.2532    0.0000 H   0  0  0  0  0  0  0  0  0  0  0  0
    9.5710    6.8407    0.0000 H   0  0  0  0  0  0  0  0  0  0  0  0
   13.9684    8.0782    0.0000 H   0  0  0  0  0  0  0  0  0  0  0  0
   12.0385    8.4626    0.0000 H   0  0  0  0  0  0  0  0  0  0  0  0
   11.4125    8.3801    0.0000 H   0  0  0  0  0  0  0  0  0  0  0  0
   11.0281    7.8792    0.0000 H   0  0  0  0  0  0  0  0  0  0  0  0
   16.8263    7.2532    0.0000 H   0  0  0  0  0  0  0  0  0  0  0  0
   17.5408    8.4907    0.0000 H   0  0  0  0  0  0  0  0  0  0  0  0
   16.8263    8.9032    0.0000 H   0  0  0  0  0  0  0  0  0  0  0  0
   16.1118    8.4907    0.0000 H   0  0  0  0  0  0  0  0  0  0  0  0
   18.6677    8.7926    0.0000 H   0  0  0  0  0  0  0  0  0  0  0  0
   21.1131    7.2532    0.0000 H   0  0  0  0  0  0  0  0  0  0  0  0
   22.5420    7.2532    0.0000 H   0  0  0  0  0  0  0  0  0  0  0  0
   21.6843    8.4781    0.0000 H   0  0  0  0  0  0  0  0  0  0  0  0
   21.1956    8.1960    0.0000 H   0  0  0  0  0  0  0  0  0  0  0  0
   23.2378    8.5214    0.0000 H   0  0  0  0  0  0  0  0  0  0  0  0
   22.6350    5.6084    0.0000 H   0  0  0  0  0  0  0  0  0  0  0  0
   23.2787    6.0567    0.0000 H   0  0  0  0  0  0  0  0  0  0  0  0
   23.8885    7.3710    0.0000 H   0  0  0  0  0  0  0  0  0  0  0  0
   23.3998    7.6531    0.0000 H   0  0  0  0  0  0  0  0  0  0  0  0
   25.3633    6.3704    0.0000 H   0  0  0  0  0  0  0  0  0  0  0  0
   25.3918    7.2669    0.0000 H   0  0  0  0  0  0  0  0  0  0  0  0
  1  2  1  0  0  0  0
  2  3  1  0  0  0  0
  2  4  1  0  0  0  0
  5  4  1  0  0  0  0
  5  6  1  0  0  0  0
  6  7  1  0  0  0  0
  7  8  2  0  0  0  0
  9  7  1  0  0  0  0
  9 10  1  0  0  0  0
 10 11  1  0  0  0  0
 11 12  2  0  0  0  0
 13 11  1  0  0  0  0
 13 14  1  0  0  0  0
 14 15  1  0  0  0  0
 13 16  1  0  0  0  0
 16 17  1  0  0  0  0
 17 18  2  0  0  0  0
 19 17  1  0  0  0  0
 19 20  1  0  0  0  0
 20 21  1  0  0  0  0
 21 22  1  0  0  0  0
 22 23  1  0  0  0  0
 22 24  2  0  0  0  0
 19 25  1  0  0  0  0
 25 26  1  0  0  0  0
 26 27  1  0  0  0  0
 26 28  2  0  0  0  0
  9 29  1  0  0  0  0
 29 30  1  0  0  0  0
 29 31  1  0  0  0  0
  5 32  1  0  0  0  0
 32 33  2  0  0  0  0
 32 34  1  0  0  0  0
 35 34  1  0  0  0  0
 35 36  1  0  0  0  0
 36 37  1  0  0  0  0
 35 38  1  0  0  0  0
 38 39  1  0  0  0  0
 39 40  1  0  0  0  0
 40 41  1  0  0  0  0
 40 42  2  0  0  0  0
  1 43  1  0  0  0  0
  1 44  1  0  0  0  0
  1 45  1  0  0  0  0
  2 46  1  0  0  0  0
  3 47  1  0  0  0  0
  3 48  1  0  0  0  0
  3 49  1  0  0  0  0
  4 50  1  0  0  0  0
  4 51  1  0  0  0  0
  5 52  1  0  0  0  0
  6 53  1  0  0  0  0
  9 54  1  0  0  0  0
 10 55  1  0  0  0  0
 13 56  1  0  0  0  0
 14 57  1  0  0  0  0
 14 58  1  0  0  0  0
 15 59  1  0  0  0  0
 16 60  1  0  0  0  0
 19 61  1  0  0  0  0
 20 62  1  0  0  0  0
 20 63  1  0  0  0  0
 21 64  1  0  0  0  0
 21 65  1  0  0  0  0
 23 66  1  0  0  0  0
 25 67  1  0  0  0  0
 27 68  1  0  0  0  0
 27 69  1  0  0  0  0
 27 70  1  0  0  0  0
 29 71  1  0  0  0  0
 30 72  1  0  0  0  0
 30 73  1  0  0  0  0
 30 74  1  0  0  0  0
 31 75  1  0  0  0  0
 34 76  1  0  0  0  0
 35 77  1  0  0  0  0
 36 78  1  0  0  0  0
 36 79  1  0  0  0  0
 37 80  1  0  0  0  0
 38 81  1  0  0  0  0
 38 82  1  0  0  0  0
 39 83  1  0  0  0  0
 39 84  1  0  0  0  0
 41 85  1  0  0  0  0
 41 86  1  0  0  0  0
M  END
> <Compound_name>


> <Standard Type>
Ki

> <Standard Relation>
=

> <Standard Value>
8270.0

> <Standard Units>
nM

> <Outcome>
Active

> <InChIKey>
KGSGTZBJGXHZGC-UHFFFAOYSA-N

> <Molecule ChEMBL ID>


$$$$

  Mrv1817 04132013522D          

 81 81  0  0  0  0            999 V2000
    8.5292   -3.3439    0.0000 C   0  0  0  0  0  0  0  0  0  0  0  0
    8.5292   -2.5189    0.0000 C   0  0  0  0  0  0  0  0  0  0  0  0
    9.2437   -2.1064    0.0000 C   0  0  0  0  0  0  0  0  0  0  0  0
    7.8147   -2.1064    0.0000 C   0  0  0  0  0  0  0  0  0  0  0  0
    7.8147   -1.2814    0.0000 C   0  0  0  0  0  0  0  0  0  0  0  0
    7.1002   -0.8689    0.0000 N   0  0  0  0  0  0  0  0  0  0  0  0
    6.3858   -1.2814    0.0000 C   0  0  0  0  0  0  0  0  0  0  0  0
    6.3858   -2.1064    0.0000 O   0  0  0  0  0  0  0  0  0  0  0  0
    5.6713   -0.8689    0.0000 C   0  0  0  0  0  0  0  0  0  0  0  0
    4.9568   -1.2814    0.0000 N   0  0  0  0  0  0  0  0  0  0  0  0
    4.2424   -0.8689    0.0000 C   0  0  0  0  0  0  0  0  0  0  0  0
    4.2424   -0.0439    0.0000 O   0  0  0  0  0  0  0  0  0  0  0  0
    3.5279   -1.2814    0.0000 C   0  0  0  0  0  0  0  0  0  0  0  0
    3.5279   -2.1064    0.0000 C   0  0  0  0  0  0  0  0  0  0  0  0
    2.8134   -0.8689    0.0000 N   0  0  0  0  0  0  0  0  0  0  0  0
    2.0989   -1.2814    0.0000 C   0  0  0  0  0  0  0  0  0  0  0  0
    2.0989   -2.1064    0.0000 O   0  0  0  0  0  0  0  0  0  0  0  0
    1.3845   -0.8689    0.0000 O   0  0  0  0  0  0  0  0  0  0  0  0
    0.6700   -1.2814    0.0000 C   0  0  0  0  0  0  0  0  0  0  0  0
   -0.0445   -0.8689    0.0000 C   0  0  0  0  0  0  0  0  0  0  0  0
   -0.7589   -1.2814    0.0000 C   0  0  0  0  0  0  0  0  0  0  0  0
   -1.4734   -0.8689    0.0000 C   0  0  0  0  0  0  0  0  0  0  0  0
   -1.4734   -0.0439    0.0000 C   0  0  0  0  0  0  0  0  0  0  0  0
   -0.7589    0.3686    0.0000 C   0  0  0  0  0  0  0  0  0  0  0  0
   -0.0445   -0.0439    0.0000 C   0  0  0  0  0  0  0  0  0  0  0  0
    5.6713   -0.0439    0.0000 C   0  0  0  0  0  0  0  0  0  0  0  0
    4.9568    0.3686    0.0000 C   0  0  0  0  0  0  0  0  0  0  0  0
    6.3858    0.3686    0.0000 C   0  0  0  0  0  0  0  0  0  0  0  0
    8.5292   -0.8689    0.0000 C   0  0  0  0  0  0  0  0  0  0  0  0
    8.5292   -0.0439    0.0000 O   0  0  0  0  0  0  0  0  0  0  0  0
    9.2437   -1.2814    0.0000 N   0  0  0  0  0  0  0  0  0  0  0  0
    9.9581   -0.8689    0.0000 C   0  0  0  0  0  0  0  0  0  0  0  0
   10.6726   -1.2814    0.0000 C   0  0  0  0  0  0  0  0  0  0  0  0
   11.3871   -0.8689    0.0000 C   0  0  0  0  0  0  0  0  0  0  0  0
   12.1015   -1.2814    0.0000 C   0  0  0  0  0  0  0  0  0  0  0  0
   12.8160   -0.8689    0.0000 N   0  0  0  0  0  0  0  0  0  0  0  0
   12.1015   -2.1064    0.0000 O   0  0  0  0  0  0  0  0  0  0  0  0
    9.9581   -0.0439    0.0000 C   0  0  0  0  0  0  0  0  0  0  0  0
   10.6726    0.3686    0.0000 N   0  0  0  0  0  0  0  0  0  0  0  0
    7.7042   -3.3439    0.0000 H   0  0  0  0  0  0  0  0  0  0  0  0
    8.5292   -4.1689    0.0000 H   0  0  0  0  0  0  0  0  0  0  0  0
    9.3542   -3.3439    0.0000 H   0  0  0  0  0  0  0  0  0  0  0  0
    9.2437   -2.9314    0.0000 H   0  0  0  0  0  0  0  0  0  0  0  0
   10.0189   -2.3886    0.0000 H   0  0  0  0  0  0  0  0  0  0  0  0
   10.0189   -1.8242    0.0000 H   0  0  0  0  0  0  0  0  0  0  0  0
    8.5292   -1.6939    0.0000 H   0  0  0  0  0  0  0  0  0  0  0  0
    6.9911   -2.1544    0.0000 H   0  0  0  0  0  0  0  0  0  0  0  0
    7.3614   -2.7957    0.0000 H   0  0  0  0  0  0  0  0  0  0  0  0
    7.1002   -1.6939    0.0000 H   0  0  0  0  0  0  0  0  0  0  0  0
    7.1002   -0.0439    0.0000 H   0  0  0  0  0  0  0  0  0  0  0  0
    5.6713   -1.6939    0.0000 H   0  0  0  0  0  0  0  0  0  0  0  0
    4.5443   -1.9959    0.0000 H   0  0  0  0  0  0  0  0  0  0  0  0
    4.2424   -1.6939    0.0000 H   0  0  0  0  0  0  0  0  0  0  0  0
    2.7310   -1.8929    0.0000 H   0  0  0  0  0  0  0  0  0  0  0  0
    3.1154   -2.8209    0.0000 H   0  0  0  0  0  0  0  0  0  0  0  0
    4.1112   -2.6898    0.0000 H   0  0  0  0  0  0  0  0  0  0  0  0
    2.8134   -0.0439    0.0000 H   0  0  0  0  0  0  0  0  0  0  0  0
    0.2997   -2.0187    0.0000 H   0  0  0  0  0  0  0  0  0  0  0  0
    1.0403   -2.0187    0.0000 H   0  0  0  0  0  0  0  0  0  0  0  0
   -0.7589   -2.1064    0.0000 H   0  0  0  0  0  0  0  0  0  0  0  0
   -2.1879   -1.2814    0.0000 H   0  0  0  0  0  0  0  0  0  0  0  0
   -2.1879    0.3686    0.0000 H   0  0  0  0  0  0  0  0  0  0  0  0
   -0.7589    1.1936    0.0000 H   0  0  0  0  0  0  0  0  0  0  0  0
    0.6700    0.3686    0.0000 H   0  0  0  0  0  0  0  0  0  0  0  0
    4.9568   -0.4564    0.0000 H   0  0  0  0  0  0  0  0  0  0  0  0
    5.6713    0.7811    0.0000 H   0  0  0  0  0  0  0  0  0  0  0  0
    4.9568    1.1936    0.0000 H   0  0  0  0  0  0  0  0  0  0  0  0
    4.2424    0.7811    0.0000 H   0  0  0  0  0  0  0  0  0  0  0  0
    7.0178    0.8989    0.0000 H   0  0  0  0  0  0  0  0  0  0  0  0
    6.5290    1.1811    0.0000 H   0  0  0  0  0  0  0  0  0  0  0  0
    6.3858   -0.4564    0.0000 H   0  0  0  0  0  0  0  0  0  0  0  0
    9.2437   -0.4564    0.0000 H   0  0  0  0  0  0  0  0  0  0  0  0
   10.6726   -0.4564    0.0000 H   0  0  0  0  0  0  0  0  0  0  0  0
   10.7656   -2.1012    0.0000 H   0  0  0  0  0  0  0  0  0  0  0  0
   11.4092   -1.6529    0.0000 H   0  0  0  0  0  0  0  0  0  0  0  0
   12.0191   -0.3386    0.0000 H   0  0  0  0  0  0  0  0  0  0  0  0
   11.5303   -0.0564    0.0000 H   0  0  0  0  0  0  0  0  0  0  0  0
   13.4939   -1.3391    0.0000 H   0  0  0  0  0  0  0  0  0  0  0  0
   13.5224   -0.4427    0.0000 H   0  0  0  0  0  0  0  0  0  0  0  0
    9.5456    0.6706    0.0000 H   0  0  0  0  0  0  0  0  0  0  0  0
   10.6464    1.1932    0.0000 H   0  0  0  0  0  0  0  0  0  0  0  0
  1  2  1  0  0  0  0
  2  3  1  0  0  0  0
  2  4  1  0  0  0  0
  5  4  1  0  0  0  0
  5  6  1  0  0  0  0
  6  7  1  0  0  0  0
  7  8  2  0  0  0  0
  9  7  1  0  0  0  0
  9 10  1  0  0  0  0
 10 11  1  0  0  0  0
 11 12  2  0  0  0  0
 13 11  1  0  0  0  0
 13 14  1  0  0  0  0
 13 15  1  0  0  0  0
 15 16  1  0  0  0  0
 16 17  2  0  0  0  0
 16 18  1  0  0  0  0
 18 19  1  0  0  0  0
 19 20  1  0  0  0  0
 20 21  4  0  0  0  0
 21 22  4  0  0  0  0
 22 23  4  0  0  0  0
 23 24  4  0  0  0  0
 24 25  4  0  0  0  0
 20 25  4  0  0  0  0
  9 26  1  0  0  0  0
 26 27  1  0  0  0  0
 26 28  1  0  0  0  0
  5 29  1  0  0  0  0
 29 30  2  0  0  0  0
 29 31  1  0  0  0  0
 32 31  1  0  0  0  0
 32 33  1  0  0  0  0
 33 34  1  0  0  0  0
 34 35  1  0  0  0  0
 35 36  1  0  0  0  0
 35 37  2  0  0  0  0
 32 38  1  0  0  0  0
 38 39  2  0  0  0  0
  1 40  1  0  0  0  0
  1 41  1  0  0  0  0
  1 42  1  0  0  0  0
  2 43  1  0  0  0  0
  3 44  1  0  0  0  0
  3 45  1  0  0  0  0
  3 46  1  0  0  0  0
  4 47  1  0  0  0  0
  4 48  1  0  0  0  0
  5 49  1  0  0  0  0
  6 50  1  0  0  0  0
  9 51  1  0  0  0  0
 10 52  1  0  0  0  0
 13 53  1  0  0  0  0
 14 54  1  0  0  0  0
 14 55  1  0  0  0  0
 14 56  1  0  0  0  0
 15 57  1  0  0  0  0
 19 58  1  0  0  0  0
 19 59  1  0  0  0  0
 21 60  1  0  0  0  0
 22 61  1  0  0  0  0
 23 62  1  0  0  0  0
 24 63  1  0  0  0  0
 25 64  1  0  0  0  0
 26 65  1  0  0  0  0
 27 66  1  0  0  0  0
 27 67  1  0  0  0  0
 27 68  1  0  0  0  0
 28 69  1  0  0  0  0
 28 70  1  0  0  0  0
 28 71  1  0  0  0  0
 31 72  1  0  0  0  0
 32 73  1  0  0  0  0
 33 74  1  0  0  0  0
 33 75  1  0  0  0  0
 34 76  1  0  0  0  0
 34 77  1  0  0  0  0
 36 78  1  0  0  0  0
 36 79  1  0  0  0  0
 38 80  1  0  0  0  0
 39 81  1  0  0  0  0
M  END
> <Compound_name>
benzyl N-[(2S)-1-[[(2S)-1-[[(2S)-1-[[(2S)-5-amino-1-imino-5-oxopentan-2-yl]amino]-4-methyl-1-oxopentan-2-yl]amino]-3-methyl-1-oxobutan-2-yl]amino]-1-oxopropan-2-yl]carbamate

> <Standard Type>
IC50

> <Standard Relation>
=

> <Standard Value>
4600.0

> <Standard Units>
nM

> <Outcome>
Active

> <InChIKey>
KWWXATSZVNLQDH-CCVNUDIWNA-N

> <Molecule ChEMBL ID>


$$$$

  Mrv1817 04132013522D          

 90 91  0  0  1  0            999 V2000
    6.3232   -0.5560    0.0000 C   0  0  0  0  0  0  0  0  0  0  0  0
    6.1949   -1.3710    0.0000 C   0  0  0  0  0  0  0  0  0  0  0  0
    6.8365   -1.8896    0.0000 O   0  0  0  0  0  0  0  0  0  0  0  0
    6.7082   -2.7046    0.0000 C   0  0  0  0  0  0  0  0  0  0  0  0
    5.9383   -3.0009    0.0000 O   0  0  0  0  0  0  0  0  0  0  0  0
    7.3498   -3.2232    0.0000 C   0  0  0  0  0  0  0  0  0  0  0  0
    7.2215   -4.0381    0.0000 C   0  0  0  0  0  0  0  0  0  0  0  0
    7.8631   -4.5568    0.0000 C   0  0  0  0  0  0  0  0  0  0  0  0
    7.7348   -5.3717    0.0000 C   0  0  0  0  0  0  0  0  0  0  0  0
    6.9649   -5.6681    0.0000 C   0  0  0  0  0  0  0  0  0  0  0  0
    6.7520   -6.4651    0.0000 C   0  0  0  0  0  0  0  0  0  0  0  0
    5.9282   -6.5091    0.0000 C   0  0  0  0  0  0  0  0  0  0  0  0
    5.6319   -5.7391    0.0000 N   0  0  0  0  0  0  0  0  0  0  0  0
    6.2725   -5.2194    0.0000 C   0  0  0  0  0  0  0  0  0  0  0  0
    6.2286   -4.3955    0.0000 O   0  0  0  0  0  0  0  0  0  0  0  0
    8.6330   -4.2604    0.0000 N   0  0  0  0  0  0  0  0  0  0  0  0
    9.2747   -4.7790    0.0000 C   0  0  0  0  0  0  0  0  0  0  0  0
    9.1463   -5.5940    0.0000 O   0  0  0  0  0  0  0  0  0  0  0  0
   10.0446   -4.4827    0.0000 C   0  0  0  0  0  0  0  0  0  0  0  0
   10.1729   -3.6677    0.0000 C   0  0  0  0  0  0  0  0  0  0  0  0
    9.5313   -3.1491    0.0000 C   0  0  0  0  0  0  0  0  0  0  0  0
    8.7614   -3.4454    0.0000 C   0  0  0  0  0  0  0  0  0  0  0  0
    9.6596   -2.3341    0.0000 C   0  0  0  0  0  0  0  0  0  0  0  0
   10.6862   -5.0013    0.0000 N   0  0  0  0  0  0  0  0  0  0  0  0
   11.4561   -4.7049    0.0000 C   0  0  0  0  0  0  0  0  0  0  0  0
   11.5845   -3.8900    0.0000 O   0  0  0  0  0  0  0  0  0  0  0  0
   12.0978   -5.2235    0.0000 C   0  0  0  0  0  0  0  0  0  0  0  0
   12.8677   -4.9272    0.0000 N   0  0  0  0  0  0  0  0  0  0  0  0
   13.5093   -5.4458    0.0000 C   0  0  0  0  0  0  0  0  0  0  0  0
   13.3810   -6.2608    0.0000 O   0  0  0  0  0  0  0  0  0  0  0  0
   14.2792   -5.1495    0.0000 C   0  0  0  0  0  0  0  0  0  0  0  0
   14.4076   -4.3345    0.0000 C   0  0  0  0  0  0  0  0  0  0  0  0
   14.9209   -5.6681    0.0000 N   0  0  0  0  0  0  0  0  0  0  0  0
   15.6908   -5.3717    0.0000 C   0  0  0  0  0  0  0  0  0  0  0  0
   15.8191   -4.5568    0.0000 O   0  0  0  0  0  0  0  0  0  0  0  0
   16.3324   -5.8903    0.0000 C   0  0  0  0  0  0  0  0  0  0  0  0
   17.1291   -5.6761    0.0000 C   0  0  0  0  0  0  0  0  0  0  0  0
   17.5791   -6.3676    0.0000 C   0  0  0  0  0  0  0  0  0  0  0  0
   18.4030   -6.4100    0.0000 C   0  0  0  0  0  0  0  0  0  0  0  0
   17.0604   -7.0092    0.0000 O   0  0  0  0  0  0  0  0  0  0  0  0
   16.2900   -6.7142    0.0000 N   0  0  0  0  0  0  0  0  0  0  0  0
   11.9694   -6.0385    0.0000 C   0  0  0  0  0  0  0  0  0  0  0  0
   12.6111   -6.5571    0.0000 C   0  0  0  0  0  0  0  0  0  0  0  0
   11.1995   -6.3348    0.0000 C   0  0  0  0  0  0  0  0  0  0  0  0
    7.1382   -0.6844    0.0000 H   0  0  0  0  0  0  0  0  0  0  0  0
    6.4516    0.2589    0.0000 H   0  0  0  0  0  0  0  0  0  0  0  0
    5.5083   -0.4277    0.0000 H   0  0  0  0  0  0  0  0  0  0  0  0
    5.3739   -1.2903    0.0000 H   0  0  0  0  0  0  0  0  0  0  0  0
    5.6399   -1.9814    0.0000 H   0  0  0  0  0  0  0  0  0  0  0  0
    8.1198   -2.9268    0.0000 H   0  0  0  0  0  0  0  0  0  0  0  0
    6.4516   -4.3345    0.0000 H   0  0  0  0  0  0  0  0  0  0  0  0
    7.0932   -4.8531    0.0000 H   0  0  0  0  0  0  0  0  0  0  0  0
    8.0754   -6.1231    0.0000 H   0  0  0  0  0  0  0  0  0  0  0  0
    8.5409   -5.5472    0.0000 H   0  0  0  0  0  0  0  0  0  0  0  0
    7.5784   -6.2195    0.0000 H   0  0  0  0  0  0  0  0  0  0  0  0
    6.5848   -7.2730    0.0000 H   0  0  0  0  0  0  0  0  0  0  0  0
    7.1807   -7.1701    0.0000 H   0  0  0  0  0  0  0  0  0  0  0  0
    5.2070   -6.9097    0.0000 H   0  0  0  0  0  0  0  0  0  0  0  0
    5.8571   -7.3310    0.0000 H   0  0  0  0  0  0  0  0  0  0  0  0
    4.8348   -5.5263    0.0000 H   0  0  0  0  0  0  0  0  0  0  0  0
    7.9914   -3.7418    0.0000 H   0  0  0  0  0  0  0  0  0  0  0  0
    9.4030   -3.9641    0.0000 H   0  0  0  0  0  0  0  0  0  0  0  0
   10.9940   -3.7484    0.0000 H   0  0  0  0  0  0  0  0  0  0  0  0
   10.7280   -3.0573    0.0000 H   0  0  0  0  0  0  0  0  0  0  0  0
    8.8897   -2.6305    0.0000 H   0  0  0  0  0  0  0  0  0  0  0  0
    7.9464   -3.3171    0.0000 H   0  0  0  0  0  0  0  0  0  0  0  0
    9.0577   -4.2154    0.0000 H   0  0  0  0  0  0  0  0  0  0  0  0
    8.4650   -2.6755    0.0000 H   0  0  0  0  0  0  0  0  0  0  0  0
   10.4136   -2.6690    0.0000 H   0  0  0  0  0  0  0  0  0  0  0  0
   10.1782   -1.6925    0.0000 H   0  0  0  0  0  0  0  0  0  0  0  0
    9.1741   -1.6671    0.0000 H   0  0  0  0  0  0  0  0  0  0  0  0
   10.5579   -5.8162    0.0000 H   0  0  0  0  0  0  0  0  0  0  0  0
   12.2261   -4.4086    0.0000 H   0  0  0  0  0  0  0  0  0  0  0  0
   13.3863   -4.2856    0.0000 H   0  0  0  0  0  0  0  0  0  0  0  0
   13.6376   -4.6308    0.0000 H   0  0  0  0  0  0  0  0  0  0  0  0
   15.1615   -4.6694    0.0000 H   0  0  0  0  0  0  0  0  0  0  0  0
   14.9262   -3.6929    0.0000 H   0  0  0  0  0  0  0  0  0  0  0  0
   13.9220   -3.6675    0.0000 H   0  0  0  0  0  0  0  0  0  0  0  0
   14.7925   -6.4830    0.0000 H   0  0  0  0  0  0  0  0  0  0  0  0
   17.4241   -4.9056    0.0000 H   0  0  0  0  0  0  0  0  0  0  0  0
   18.3605   -7.2339    0.0000 H   0  0  0  0  0  0  0  0  0  0  0  0
   19.2269   -6.4524    0.0000 H   0  0  0  0  0  0  0  0  0  0  0  0
   18.4454   -5.5861    0.0000 H   0  0  0  0  0  0  0  0  0  0  0  0
   12.7394   -5.7422    0.0000 H   0  0  0  0  0  0  0  0  0  0  0  0
   11.8411   -6.8535    0.0000 H   0  0  0  0  0  0  0  0  0  0  0  0
   12.4827   -7.3721    0.0000 H   0  0  0  0  0  0  0  0  0  0  0  0
   13.2527   -7.0757    0.0000 H   0  0  0  0  0  0  0  0  0  0  0  0
   10.4927   -6.7604    0.0000 H   0  0  0  0  0  0  0  0  0  0  0  0
   10.9316   -7.1151    0.0000 H   0  0  0  0  0  0  0  0  0  0  0  0
   11.3278   -5.5199    0.0000 H   0  0  0  0  0  0  0  0  0  0  0  0
  1  2  1  0  0  0  0
  2  3  1  0  0  0  0
  3  4  1  0  0  0  0
  4  5  2  0  0  0  0
  6  4  1  4  0  0  0
  6  7  2  0  0  0  0
  8  7  1  0  0  0  0
  8  9  1  0  0  0  0
 10  9  1  0  0  0  0
 10 11  1  0  0  0  0
 11 12  1  0  0  0  0
 12 13  1  0  0  0  0
 13 14  1  0  0  0  0
 10 14  1  0  0  0  0
 14 15  2  0  0  0  0
  8 16  1  0  0  0  0
 16 17  1  0  0  0  0
 17 18  2  0  0  0  0
 19 17  1  0  0  0  0
 19 20  1  0  0  0  0
 20 21  1  0  0  0  0
 21 22  1  0  0  0  0
 21 23  1  0  0  0  0
 19 24  1  0  0  0  0
 24 25  1  0  0  0  0
 25 26  2  0  0  0  0
 27 25  1  0  0  0  0
 27 28  1  0  0  0  0
 28 29  1  0  0  0  0
 29 30  2  0  0  0  0
 31 29  1  0  0  0  0
 31 32  1  0  0  0  0
 31 33  1  0  0  0  0
 33 34  1  0  0  0  0
 34 35  2  0  0  0  0
 34 36  1  0  0  0  0
 36 37  4  0  0  0  0
 37 38  4  0  0  0  0
 38 39  1  0  0  0  0
 38 40  4  0  0  0  0
 40 41  4  0  0  0  0
 36 41  4  0  0  0  0
 27 42  1  0  0  0  0
 42 43  1  0  0  0  0
 42 44  1  0  0  0  0
  1 45  1  0  0  0  0
  1 46  1  0  0  0  0
  1 47  1  0  0  0  0
  2 48  1  0  0  0  0
  2 49  1  0  0  0  0
  6 50  1  0  0  0  0
  7 51  1  0  0  0  0
  8 52  1  0  0  0  0
  9 53  1  0  0  0  0
  9 54  1  0  0  0  0
 10 55  1  0  0  0  0
 11 56  1  0  0  0  0
 11 57  1  0  0  0  0
 12 58  1  0  0  0  0
 12 59  1  0  0  0  0
 13 60  1  0  0  0  0
 16 61  1  0  0  0  0
 19 62  1  0  0  0  0
 20 63  1  0  0  0  0
 20 64  1  0  0  0  0
 21 65  1  0  0  0  0
 22 66  1  0  0  0  0
 22 67  1  0  0  0  0
 22 68  1  0  0  0  0
 23 69  1  0  0  0  0
 23 70  1  0  0  0  0
 23 71  1  0  0  0  0
 24 72  1  0  0  0  0
 27 73  1  0  0  0  0
 28 74  1  0  0  0  0
 31 75  1  0  0  0  0
 32 76  1  0  0  0  0
 32 77  1  0  0  0  0
 32 78  1  0  0  0  0
 33 79  1  0  0  0  0
 37 80  1  0  0  0  0
 39 81  1  0  0  0  0
 39 82  1  0  0  0  0
 39 83  1  0  0  0  0
 42 84  1  0  0  0  0
 43 85  1  0  0  0  0
 43 86  1  0  0  0  0
 43 87  1  0  0  0  0
 44 88  1  0  0  0  0
 44 89  1  0  0  0  0
 44 90  1  0  0  0  0
M  END
> <Compound_name>
ethyl (E,4S)-4-[[(2S)-4-methyl-2-[[(2S)-3-methyl-2-[[(2S)-2-[(5-methyl-1,2-oxazole-3-carbonyl)amino]propanoyl]amino]butanoyl]amino]pentanoyl]amino]-5-[(3S)-2-oxopyrrolidin-3-yl]pent-2-enoate

> <Standard Type>
Ki

> <Standard Relation>
=

> <Standard Value>
10700.0

> <Standard Units>
nM

> <Outcome>
Inactive

> <InChIKey>
LIVSSCDUYUOZEL-UHFFFAOYSA-N

> <Molecule ChEMBL ID>


$$$$

  Mrv1817 04132013522D          

 82 82  0  0  1  0            999 V2000
   -2.6184   -7.5827    0.0000 C   0  0  0  0  0  0  0  0  0  0  0  0
   -1.9559   -7.0909    0.0000 C   0  0  0  0  0  0  0  0  0  0  0  0
   -1.1989   -7.4188    0.0000 O   0  0  0  0  0  0  0  0  0  0  0  0
   -2.0506   -6.2714    0.0000 N   0  0  0  0  0  0  0  0  0  0  0  0
   -1.3881   -5.7796    0.0000 C   0  0  0  0  0  0  0  0  0  0  0  0
   -1.4828   -4.9601    0.0000 C   0  0  0  0  0  0  0  0  0  0  0  0
   -2.2398   -4.6323    0.0000 C   0  0  0  0  0  0  0  0  0  0  0  0
   -2.9023   -5.1240    0.0000 N   0  0  0  0  0  0  0  0  0  0  0  0
   -2.3345   -3.8127    0.0000 O   0  0  0  0  0  0  0  0  0  0  0  0
   -0.6311   -6.1075    0.0000 C   0  0  0  0  0  0  0  0  0  0  0  0
   -0.5364   -6.9270    0.0000 O   0  0  0  0  0  0  0  0  0  0  0  0
    0.0314   -5.6157    0.0000 N   0  0  0  0  0  0  0  0  0  0  0  0
    0.7884   -5.9436    0.0000 C   0  0  0  0  0  0  0  0  0  0  0  0
    0.8831   -6.7631    0.0000 C   0  0  0  0  0  0  0  0  0  0  0  0
    1.6402   -7.0909    0.0000 O   0  0  0  0  0  0  0  0  0  0  0  0
    1.4509   -5.4518    0.0000 C   0  0  0  0  0  0  0  0  0  0  0  0
    1.3563   -4.6323    0.0000 O   0  0  0  0  0  0  0  0  0  0  0  0
    2.2080   -5.7796    0.0000 N   0  0  0  0  0  0  0  0  0  0  0  0
    2.8704   -5.2879    0.0000 C   0  0  0  0  0  0  0  0  0  0  0  0
    2.7758   -4.4684    0.0000 C   0  0  0  0  0  0  0  0  0  0  0  0
    3.4382   -3.9766    0.0000 C   0  0  0  0  0  0  0  0  0  0  0  0
    3.3436   -3.1571    0.0000 C   0  0  0  0  0  0  0  0  0  0  0  0
    4.0060   -2.6653    0.0000 C   0  0  0  0  0  0  0  0  0  0  0  0
    4.7631   -2.9932    0.0000 C   0  0  0  0  0  0  0  0  0  0  0  0
    4.8577   -3.8127    0.0000 C   0  0  0  0  0  0  0  0  0  0  0  0
    4.1953   -4.3044    0.0000 C   0  0  0  0  0  0  0  0  0  0  0  0
    3.6275   -5.6157    0.0000 C   0  0  0  0  0  0  0  0  0  0  0  0
    3.7221   -6.4353    0.0000 O   0  0  0  0  0  0  0  0  0  0  0  0
    4.2899   -5.1240    0.0000 N   0  0  0  0  0  0  0  0  0  0  0  0
    5.0470   -5.4518    0.0000 C   0  0  0  0  0  0  0  0  0  0  0  0
    5.1416   -6.2714    0.0000 C   0  0  0  0  0  0  0  0  0  0  0  0
    5.8987   -6.5992    0.0000 O   0  0  0  0  0  0  0  0  0  0  0  0
    5.7094   -4.9601    0.0000 C   0  0  0  0  0  0  0  0  0  0  0  0
    5.6148   -4.1405    0.0000 O   0  0  0  0  0  0  0  0  0  0  0  0
    6.4665   -5.2879    0.0000 N   0  0  0  0  0  0  0  0  0  0  0  0
    7.1289   -4.7962    0.0000 C   0  0  0  0  0  0  0  0  0  0  0  0
    7.0343   -3.9766    0.0000 C   0  0  0  0  0  0  0  0  0  0  0  0
    7.6967   -3.4849    0.0000 O   0  0  0  0  0  0  0  0  0  0  0  0
    7.8860   -5.1240    0.0000 C   0  0  0  0  0  0  0  0  0  0  0  0
    8.5484   -4.6323    0.0000 C   0  0  0  0  0  0  0  0  0  0  0  0
    9.3055   -4.9601    0.0000 C   0  0  0  0  0  0  0  0  0  0  0  0
    9.9679   -4.4684    0.0000 N   0  0  0  0  0  0  0  0  0  0  0  0
    9.4001   -5.7796    0.0000 O   0  0  0  0  0  0  0  0  0  0  0  0
   -3.1101   -6.9202    0.0000 H   0  0  0  0  0  0  0  0  0  0  0  0
   -3.2808   -8.0744    0.0000 H   0  0  0  0  0  0  0  0  0  0  0  0
   -2.1266   -8.2451    0.0000 H   0  0  0  0  0  0  0  0  0  0  0  0
   -2.8076   -5.9436    0.0000 H   0  0  0  0  0  0  0  0  0  0  0  0
   -2.1452   -5.4518    0.0000 H   0  0  0  0  0  0  0  0  0  0  0  0
   -0.6701   -4.8180    0.0000 H   0  0  0  0  0  0  0  0  0  0  0  0
   -1.1115   -4.2234    0.0000 H   0  0  0  0  0  0  0  0  0  0  0  0
   -3.4317   -4.4913    0.0000 H   0  0  0  0  0  0  0  0  0  0  0  0
   -3.7259   -5.1708    0.0000 H   0  0  0  0  0  0  0  0  0  0  0  0
   -0.0633   -4.7962    0.0000 H   0  0  0  0  0  0  0  0  0  0  0  0
    0.1260   -6.4353    0.0000 H   0  0  0  0  0  0  0  0  0  0  0  0
    0.3161   -7.3624    0.0000 H   0  0  0  0  0  0  0  0  0  0  0  0
    0.8340   -7.5866    0.0000 H   0  0  0  0  0  0  0  0  0  0  0  0
    2.4631   -7.0321    0.0000 H   0  0  0  0  0  0  0  0  0  0  0  0
    2.3026   -6.5992    0.0000 H   0  0  0  0  0  0  0  0  0  0  0  0
    2.1133   -4.9601    0.0000 H   0  0  0  0  0  0  0  0  0  0  0  0
    2.5402   -3.6777    0.0000 H   0  0  0  0  0  0  0  0  0  0  0  0
    2.0871   -4.0141    0.0000 H   0  0  0  0  0  0  0  0  0  0  0  0
    2.8731   -2.4794    0.0000 H   0  0  0  0  0  0  0  0  0  0  0  0
    3.9114   -1.8458    0.0000 H   0  0  0  0  0  0  0  0  0  0  0  0
    5.4255   -2.5014    0.0000 H   0  0  0  0  0  0  0  0  0  0  0  0
    4.9523   -4.6323    0.0000 H   0  0  0  0  0  0  0  0  0  0  0  0
    3.5328   -4.7962    0.0000 H   0  0  0  0  0  0  0  0  0  0  0  0
    4.3845   -5.9436    0.0000 H   0  0  0  0  0  0  0  0  0  0  0  0
    5.8040   -5.7796    0.0000 H   0  0  0  0  0  0  0  0  0  0  0  0
    4.5746   -6.8707    0.0000 H   0  0  0  0  0  0  0  0  0  0  0  0
    5.0925   -7.0949    0.0000 H   0  0  0  0  0  0  0  0  0  0  0  0
    6.6407   -6.9597    0.0000 H   0  0  0  0  0  0  0  0  0  0  0  0
    6.9582   -5.9504    0.0000 H   0  0  0  0  0  0  0  0  0  0  0  0
    6.3719   -4.4684    0.0000 H   0  0  0  0  0  0  0  0  0  0  0  0
    6.7988   -3.1860    0.0000 H   0  0  0  0  0  0  0  0  0  0  0  0
    6.3456   -3.5223    0.0000 H   0  0  0  0  0  0  0  0  0  0  0  0
    8.5114   -3.3546    0.0000 H   0  0  0  0  0  0  0  0  0  0  0  0
    7.6027   -5.8989    0.0000 H   0  0  0  0  0  0  0  0  0  0  0  0
    8.3384   -5.8139    0.0000 H   0  0  0  0  0  0  0  0  0  0  0  0
    8.8317   -3.8574    0.0000 H   0  0  0  0  0  0  0  0  0  0  0  0
    8.0961   -3.9424    0.0000 H   0  0  0  0  0  0  0  0  0  0  0  0
   10.7250   -4.7962    0.0000 H   0  0  0  0  0  0  0  0  0  0  0  0
    9.8733   -3.6488    0.0000 H   0  0  0  0  0  0  0  0  0  0  0  0
  1  2  1  0  0  0  0
  2  3  2  0  0  0  0
  2  4  1  0  0  0  0
  5  4  1  0  0  0  0
  5  6  1  0  0  0  0
  6  7  1  0  0  0  0
  7  8  1  0  0  0  0
  7  9  2  0  0  0  0
  5 10  1  0  0  0  0
 10 11  2  0  0  0  0
 10 12  1  0  0  0  0
 13 12  1  0  0  0  0
 13 14  1  0  0  0  0
 14 15  1  0  0  0  0
 13 16  1  0  0  0  0
 16 17  2  0  0  0  0
 16 18  1  0  0  0  0
 19 18  1  0  0  0  0
 19 20  1  0  0  0  0
 20 21  1  0  0  0  0
 21 22  4  0  0  0  0
 22 23  4  0  0  0  0
 23 24  4  0  0  0  0
 24 25  4  0  0  0  0
 25 26  4  0  0  0  0
 21 26  4  0  0  0  0
 19 27  1  0  0  0  0
 27 28  2  0  0  0  0
 27 29  1  0  0  0  0
 30 29  1  0  0  0  0
 30 31  1  0  0  0  0
 31 32  1  0  0  0  0
 30 33  1  0  0  0  0
 33 34  2  0  0  0  0
 33 35  1  0  0  0  0
 36 35  1  0  0  0  0
 36 37  1  0  0  0  0
 37 38  1  0  0  0  0
 36 39  1  0  0  0  0
 39 40  1  0  0  0  0
 40 41  1  0  0  0  0
 41 42  1  0  0  0  0
 41 43  2  0  0  0  0
  1 44  1  0  0  0  0
  1 45  1  0  0  0  0
  1 46  1  0  0  0  0
  4 47  1  0  0  0  0
  5 48  1  0  0  0  0
  6 49  1  0  0  0  0
  6 50  1  0  0  0  0
  8 51  1  0  0  0  0
  8 52  1  0  0  0  0
 12 53  1  0  0  0  0
 13 54  1  0  0  0  0
 14 55  1  0  0  0  0
 14 56  1  0  0  0  0
 15 57  1  0  0  0  0
 18 58  1  0  0  0  0
 19 59  1  0  0  0  0
 20 60  1  0  0  0  0
 20 61  1  0  0  0  0
 22 62  1  0  0  0  0
 23 63  1  0  0  0  0
 24 64  1  0  0  0  0
 25 65  1  0  0  0  0
 26 66  1  0  0  0  0
 29 67  1  0  0  0  0
 30 68  1  0  0  0  0
 31 69  1  0  0  0  0
 31 70  1  0  0  0  0
 32 71  1  0  0  0  0
 35 72  1  0  0  0  0
 36 73  1  0  0  0  0
 37 74  1  0  0  0  0
 37 75  1  0  0  0  0
 38 76  1  0  0  0  0
 39 77  1  0  0  0  0
 39 78  1  0  0  0  0
 40 79  1  0  0  0  0
 40 80  1  0  0  0  0
 42 81  1  0  0  0  0
 42 82  1  0  0  0  0
M  END
> <Compound_name>
(2S)-2-acetamido-N-[(2S)-1-[[(2S)-1-[[(2S)-1-[[(2S)-5-amino-1-hydroxy-5-oxopentan-2-yl]amino]-3-hydroxy-1-oxopropan-2-yl]amino]-1-oxo-3-phenylpropan-2-yl]amino]-3-hydroxy-1-oxopropan-2-yl]butanediamide

> <Standard Type>
Ki

> <Standard Relation>
=

> <Standard Value>
72730.0

> <Standard Units>
nM

> <Outcome>
Inactive

> <InChIKey>
LWVNNXRFRKURJV-UHFFFAOYSA-N

> <Molecule ChEMBL ID>


$$$$

  Mrv1817 04132013522D          

 95 96  0  0  1  0            999 V2000
    0.2856   -0.3904    0.0000 C   0  0  0  0  0  0  0  0  0  0  0  0
    0.0155    0.3892    0.0000 C   0  0  0  0  0  0  0  0  0  0  0  0
    0.5556    1.0128    0.0000 C   0  0  0  0  0  0  0  0  0  0  0  0
   -0.7946    0.5451    0.0000 C   0  0  0  0  0  0  0  0  0  0  0  0
   -1.3347   -0.0786    0.0000 C   0  0  0  0  0  0  0  0  0  0  0  0
   -2.1448    0.0773    0.0000 N   0  0  0  0  0  0  0  0  0  0  0  0
   -2.4149    0.8569    0.0000 C   0  0  0  0  0  0  0  0  0  0  0  0
   -1.8748    1.4805    0.0000 O   0  0  0  0  0  0  0  0  0  0  0  0
   -3.2250    1.0128    0.0000 C   0  0  0  0  0  0  0  0  0  0  0  0
   -3.7651    0.3892    0.0000 N   0  0  0  0  0  0  0  0  0  0  0  0
   -3.4951   -0.3904    0.0000 C   0  0  0  0  0  0  0  0  0  0  0  0
   -2.6849   -0.5463    0.0000 O   0  0  0  0  0  0  0  0  0  0  0  0
   -4.0352   -1.0140    0.0000 C   0  0  0  0  0  0  0  0  0  0  0  0
   -3.7651   -1.7936    0.0000 N   0  0  0  0  0  0  0  0  0  0  0  0
   -4.3052   -2.4172    0.0000 C   0  0  0  0  0  0  0  0  0  0  0  0
   -4.0352   -3.1968    0.0000 C   0  0  0  0  0  0  0  0  0  0  0  0
   -5.1153   -2.2613    0.0000 O   0  0  0  0  0  0  0  0  0  0  0  0
   -4.8453   -0.8581    0.0000 C   0  0  0  0  0  0  0  0  0  0  0  0
   -5.3854   -1.4818    0.0000 C   0  0  0  0  0  0  0  0  0  0  0  0
   -5.1153   -0.0786    0.0000 C   0  0  0  0  0  0  0  0  0  0  0  0
   -3.4951    1.7924    0.0000 C   0  0  0  0  0  0  0  0  0  0  0  0
   -2.9550    2.4160    0.0000 C   0  0  0  0  0  0  0  0  0  0  0  0
   -4.3052    1.9483    0.0000 O   0  0  0  0  0  0  0  0  0  0  0  0
   -4.5752    2.7278    0.0000 C   0  0  0  0  0  0  0  0  0  0  0  0
   -5.3854    2.8837    0.0000 C   0  0  0  0  0  0  0  0  0  0  0  0
   -5.9255    2.2601    0.0000 C   0  0  0  0  0  0  0  0  0  0  0  0
   -6.7356    2.4160    0.0000 C   0  0  0  0  0  0  0  0  0  0  0  0
   -7.0056    3.1955    0.0000 C   0  0  0  0  0  0  0  0  0  0  0  0
   -6.4656    3.8192    0.0000 C   0  0  0  0  0  0  0  0  0  0  0  0
   -5.6554    3.6633    0.0000 C   0  0  0  0  0  0  0  0  0  0  0  0
   -1.0647   -0.8581    0.0000 C   0  0  0  0  0  0  0  0  0  0  0  0
   -1.6048   -1.4818    0.0000 O   0  0  0  0  0  0  0  0  0  0  0  0
   -0.2545   -1.0140    0.0000 N   0  0  0  0  0  0  0  0  0  0  0  0
    0.0155   -1.7936    0.0000 C   0  0  0  0  0  0  0  0  0  0  0  0
    0.8257   -1.9495    0.0000 C   0  0  0  0  0  0  0  0  0  0  0  0
    1.0957   -2.7290    0.0000 C   0  0  0  0  0  0  0  0  0  0  0  0
    0.6238   -3.4057    0.0000 C   0  0  0  0  0  0  0  0  0  0  0  0
    1.1215   -4.0637    0.0000 C   0  0  0  0  0  0  0  0  0  0  0  0
    1.9010   -3.7936    0.0000 N   0  0  0  0  0  0  0  0  0  0  0  0
    1.8851   -2.9688    0.0000 C   0  0  0  0  0  0  0  0  0  0  0  0
    2.5430   -2.4711    0.0000 O   0  0  0  0  0  0  0  0  0  0  0  0
   -0.5246   -2.4172    0.0000 C   0  0  0  0  0  0  0  0  0  0  0  0
   -0.2545   -3.1968    0.0000 C   0  0  0  0  0  0  0  0  0  0  0  0
   -1.3347   -2.2613    0.0000 O   0  0  0  0  0  0  0  0  0  0  0  0
    0.5556   -1.1699    0.0000 H   0  0  0  0  0  0  0  0  0  0  0  0
    1.0957   -0.5463    0.0000 H   0  0  0  0  0  0  0  0  0  0  0  0
    0.8257    0.2332    0.0000 H   0  0  0  0  0  0  0  0  0  0  0  0
   -0.2545    1.1687    0.0000 H   0  0  0  0  0  0  0  0  0  0  0  0
    1.3657    0.8569    0.0000 H   0  0  0  0  0  0  0  0  0  0  0  0
    1.0957    1.6364    0.0000 H   0  0  0  0  0  0  0  0  0  0  0  0
    0.2856    1.7924    0.0000 H   0  0  0  0  0  0  0  0  0  0  0  0
   -1.1959    1.2659    0.0000 H   0  0  0  0  0  0  0  0  0  0  0  0
   -1.5654    0.8393    0.0000 H   0  0  0  0  0  0  0  0  0  0  0  0
   -0.5246   -0.2345    0.0000 H   0  0  0  0  0  0  0  0  0  0  0  0
   -1.8748   -0.7022    0.0000 H   0  0  0  0  0  0  0  0  0  0  0  0
   -2.9550    0.2332    0.0000 H   0  0  0  0  0  0  0  0  0  0  0  0
   -4.5752    0.5451    0.0000 H   0  0  0  0  0  0  0  0  0  0  0  0
   -3.2250   -1.1699    0.0000 H   0  0  0  0  0  0  0  0  0  0  0  0
   -3.1415   -2.3337    0.0000 H   0  0  0  0  0  0  0  0  0  0  0  0
   -4.8147   -3.4668    0.0000 H   0  0  0  0  0  0  0  0  0  0  0  0
   -3.7651   -3.9763    0.0000 H   0  0  0  0  0  0  0  0  0  0  0  0
   -3.2556   -2.9267    0.0000 H   0  0  0  0  0  0  0  0  0  0  0  0
   -4.5752   -1.6377    0.0000 H   0  0  0  0  0  0  0  0  0  0  0  0
   -5.6554   -0.7022    0.0000 H   0  0  0  0  0  0  0  0  0  0  0  0
   -6.1955   -1.3259    0.0000 H   0  0  0  0  0  0  0  0  0  0  0  0
   -5.9255   -2.1054    0.0000 H   0  0  0  0  0  0  0  0  0  0  0  0
   -5.5166    0.6422    0.0000 H   0  0  0  0  0  0  0  0  0  0  0  0
   -5.8861    0.2156    0.0000 H   0  0  0  0  0  0  0  0  0  0  0  0
   -4.3052   -0.2345    0.0000 H   0  0  0  0  0  0  0  0  0  0  0  0
   -2.6849    1.6364    0.0000 H   0  0  0  0  0  0  0  0  0  0  0  0
   -2.1321    2.4751    0.0000 H   0  0  0  0  0  0  0  0  0  0  0  0
   -2.7991    3.2261    0.0000 H   0  0  0  0  0  0  0  0  0  0  0  0
   -3.6972    2.7763    0.0000 H   0  0  0  0  0  0  0  0  0  0  0  0
   -4.5196    3.5509    0.0000 H   0  0  0  0  0  0  0  0  0  0  0  0
   -5.1153    2.1042    0.0000 H   0  0  0  0  0  0  0  0  0  0  0  0
   -6.0814    1.4499    0.0000 H   0  0  0  0  0  0  0  0  0  0  0  0
   -7.2757    1.7924    0.0000 H   0  0  0  0  0  0  0  0  0  0  0  0
   -7.8158    3.3515    0.0000 H   0  0  0  0  0  0  0  0  0  0  0  0
   -6.7356    4.5987    0.0000 H   0  0  0  0  0  0  0  0  0  0  0  0
   -5.1153    4.2869    0.0000 H   0  0  0  0  0  0  0  0  0  0  0  0
   -0.7946   -1.6377    0.0000 H   0  0  0  0  0  0  0  0  0  0  0  0
    0.2856   -2.5731    0.0000 H   0  0  0  0  0  0  0  0  0  0  0  0
    1.6506   -1.9624    0.0000 H   0  0  0  0  0  0  0  0  0  0  0  0
    1.4658   -1.4291    0.0000 H   0  0  0  0  0  0  0  0  0  0  0  0
    1.3657   -3.5086    0.0000 H   0  0  0  0  0  0  0  0  0  0  0  0
   -0.0646   -3.8604    0.0000 H   0  0  0  0  0  0  0  0  0  0  0  0
    0.4844   -4.2189    0.0000 H   0  0  0  0  0  0  0  0  0  0  0  0
    1.0610   -4.8865    0.0000 H   0  0  0  0  0  0  0  0  0  0  0  0
    1.6180   -4.7225    0.0000 H   0  0  0  0  0  0  0  0  0  0  0  0
    2.5777   -4.2656    0.0000 H   0  0  0  0  0  0  0  0  0  0  0  0
   -1.0647   -3.0409    0.0000 H   0  0  0  0  0  0  0  0  0  0  0  0
   -0.9825   -3.5849    0.0000 H   0  0  0  0  0  0  0  0  0  0  0  0
   -0.5767   -3.9563    0.0000 H   0  0  0  0  0  0  0  0  0  0  0  0
    0.5307   -2.9437    0.0000 H   0  0  0  0  0  0  0  0  0  0  0  0
   -2.1143   -2.5314    0.0000 H   0  0  0  0  0  0  0  0  0  0  0  0
  1  2  1  0  0  0  0
  2  3  1  0  0  0  0
  2  4  1  0  0  0  0
  5  4  1  0  0  0  0
  5  6  1  0  0  0  0
  6  7  1  0  0  0  0
  7  8  2  0  0  0  0
  9  7  1  0  0  0  0
  9 10  1  0  0  0  0
 10 11  1  0  0  0  0
 11 12  2  0  0  0  0
 13 11  1  0  0  0  0
 13 14  1  0  0  0  0
 14 15  1  0  0  0  0
 15 16  1  0  0  0  0
 15 17  2  0  0  0  0
 13 18  1  0  0  0  0
 18 19  1  0  0  0  0
 18 20  1  0  0  0  0
  9 21  1  0  0  0  0
 21 22  1  0  0  0  0
 21 23  1  0  0  0  0
 23 24  1  0  0  0  0
 24 25  1  0  0  0  0
 25 26  4  0  0  0  0
 26 27  4  0  0  0  0
 27 28  4  0  0  0  0
 28 29  4  0  0  0  0
 29 30  4  0  0  0  0
 25 30  4  0  0  0  0
  5 31  1  0  0  0  0
 31 32  2  0  0  0  0
 31 33  1  0  0  0  0
 34 33  1  0  0  0  0
 34 35  1  0  0  0  0
 36 35  1  0  0  0  0
 36 37  1  0  0  0  0
 37 38  1  0  0  0  0
 38 39  1  0  0  0  0
 39 40  1  0  0  0  0
 36 40  1  0  0  0  0
 40 41  2  0  0  0  0
 34 42  1  0  0  0  0
 42 43  1  0  0  0  0
 42 44  1  0  0  0  0
  1 45  1  0  0  0  0
  1 46  1  0  0  0  0
  1 47  1  0  0  0  0
  2 48  1  0  0  0  0
  3 49  1  0  0  0  0
  3 50  1  0  0  0  0
  3 51  1  0  0  0  0
  4 52  1  0  0  0  0
  4 53  1  0  0  0  0
  5 54  1  0  0  0  0
  6 55  1  0  0  0  0
  9 56  1  0  0  0  0
 10 57  1  0  0  0  0
 13 58  1  0  0  0  0
 14 59  1  0  0  0  0
 16 60  1  0  0  0  0
 16 61  1  0  0  0  0
 16 62  1  0  0  0  0
 18 63  1  0  0  0  0
 19 64  1  0  0  0  0
 19 65  1  0  0  0  0
 19 66  1  0  0  0  0
 20 67  1  0  0  0  0
 20 68  1  0  0  0  0
 20 69  1  0  0  0  0
 21 70  1  0  0  0  0
 22 71  1  0  0  0  0
 22 72  1  0  0  0  0
 22 73  1  0  0  0  0
 24 74  1  0  0  0  0
 24 75  1  0  0  0  0
 26 76  1  0  0  0  0
 27 77  1  0  0  0  0
 28 78  1  0  0  0  0
 29 79  1  0  0  0  0
 30 80  1  0  0  0  0
 33 81  1  0  0  0  0
 34 82  1  0  0  0  0
 35 83  1  0  0  0  0
 35 84  1  0  0  0  0
 36 85  1  0  0  0  0
 37 86  1  0  0  0  0
 37 87  1  0  0  0  0
 38 88  1  0  0  0  0
 38 89  1  0  0  0  0
 39 90  1  0  0  0  0
 42 91  1  0  0  0  0
 43 92  1  0  0  0  0
 43 93  1  0  0  0  0
 43 94  1  0  0  0  0
 44 95  1  0  0  0  0
M  END
> <Compound_name>
(2S)-2-[[(2S,3R)-2-[[(2S)-2-acetamido-3-methylbutanoyl]amino]-3-phenylmethoxybutanoyl]amino]-N-[(2S,3R)-3-hydroxy-1-[(3S)-2-oxopyrrolidin-3-yl]butan-2-yl]-4-methylpentanamide

> <Standard Type>
Ki

> <Standard Relation>
=

> <Standard Value>
250.0

> <Standard Units>
nM

> <Outcome>
Active

> <InChIKey>
MLRKKMKXHXLXOU-UHFFFAOYSA-N

> <Molecule ChEMBL ID>


$$$$

  Mrv1817 04132013522D          

106106  0  0  0  0            999 V2000
   12.8416   -3.3574    0.0000 C   0  0  0  0  0  0  0  0  0  0  0  0
   12.8416   -2.5324    0.0000 C   0  0  0  0  0  0  0  0  0  0  0  0
   13.5561   -2.1199    0.0000 C   0  0  0  0  0  0  0  0  0  0  0  0
   12.1272   -2.1199    0.0000 C   0  0  0  0  0  0  0  0  0  0  0  0
   12.1272   -1.2949    0.0000 C   0  0  0  0  0  0  0  0  0  0  0  0
   11.4127   -0.8824    0.0000 N   0  0  0  0  0  0  0  0  0  0  0  0
   10.6982   -1.2949    0.0000 C   0  0  0  0  0  0  0  0  0  0  0  0
   10.6982   -2.1199    0.0000 O   0  0  0  0  0  0  0  0  0  0  0  0
    9.9838   -0.8824    0.0000 C   0  0  0  0  0  0  0  0  0  0  0  0
    9.2693   -1.2949    0.0000 N   0  0  0  0  0  0  0  0  0  0  0  0
    8.5548   -0.8824    0.0000 C   0  0  0  0  0  0  0  0  0  0  0  0
    8.5548   -0.0574    0.0000 O   0  0  0  0  0  0  0  0  0  0  0  0
    7.8403   -1.2949    0.0000 C   0  0  0  0  0  0  0  0  0  0  0  0
    7.8403   -2.1199    0.0000 C   0  0  0  0  0  0  0  0  0  0  0  0
    7.1259   -0.8824    0.0000 N   0  0  0  0  0  0  0  0  0  0  0  0
    6.4114   -1.2949    0.0000 C   0  0  0  0  0  0  0  0  0  0  0  0
    6.4114   -2.1199    0.0000 O   0  0  0  0  0  0  0  0  0  0  0  0
    5.6969   -0.8824    0.0000 C   0  0  0  0  0  0  0  0  0  0  0  0
    5.6969   -0.0574    0.0000 C   0  0  0  0  0  0  0  0  0  0  0  0
    4.9825    0.3551    0.0000 O   0  0  0  0  0  0  0  0  0  0  0  0
    4.9825   -1.2949    0.0000 N   0  0  0  0  0  0  0  0  0  0  0  0
    4.2680   -0.8824    0.0000 C   0  0  0  0  0  0  0  0  0  0  0  0
    4.2680   -0.0574    0.0000 O   0  0  0  0  0  0  0  0  0  0  0  0
    3.5535   -1.2949    0.0000 C   0  0  0  0  0  0  0  0  0  0  0  0
    2.8391   -0.8824    0.0000 N   0  0  0  0  0  0  0  0  0  0  0  0
    2.1246   -1.2949    0.0000 C   0  0  0  0  0  0  0  0  0  0  0  0
    2.1246   -2.1199    0.0000 O   0  0  0  0  0  0  0  0  0  0  0  0
    1.4101   -0.8824    0.0000 O   0  0  0  0  0  0  0  0  0  0  0  0
    0.6956   -1.2949    0.0000 C   0  0  0  0  0  0  0  0  0  0  0  0
   -0.0188   -0.8824    0.0000 C   0  0  0  0  0  0  0  0  0  0  0  0
   -0.7333   -1.2949    0.0000 C   0  0  0  0  0  0  0  0  0  0  0  0
   -1.4478   -0.8824    0.0000 C   0  0  0  0  0  0  0  0  0  0  0  0
   -1.4478   -0.0574    0.0000 C   0  0  0  0  0  0  0  0  0  0  0  0
   -0.7333    0.3551    0.0000 C   0  0  0  0  0  0  0  0  0  0  0  0
   -0.0188   -0.0574    0.0000 C   0  0  0  0  0  0  0  0  0  0  0  0
    3.5535   -2.1199    0.0000 C   0  0  0  0  0  0  0  0  0  0  0  0
    2.8391   -2.5324    0.0000 C   0  0  0  0  0  0  0  0  0  0  0  0
    4.2680   -2.5324    0.0000 O   0  0  0  0  0  0  0  0  0  0  0  0
    9.9838   -0.0574    0.0000 C   0  0  0  0  0  0  0  0  0  0  0  0
    9.2693    0.3551    0.0000 C   0  0  0  0  0  0  0  0  0  0  0  0
   10.6982    0.3551    0.0000 C   0  0  0  0  0  0  0  0  0  0  0  0
   12.8416   -0.8824    0.0000 C   0  0  0  0  0  0  0  0  0  0  0  0
   12.8416   -0.0574    0.0000 O   0  0  0  0  0  0  0  0  0  0  0  0
   13.5561   -1.2949    0.0000 N   0  0  0  0  0  0  0  0  0  0  0  0
   14.2706   -0.8824    0.0000 C   0  0  0  0  0  0  0  0  0  0  0  0
   14.9851   -1.2949    0.0000 C   0  0  0  0  0  0  0  0  0  0  0  0
   15.6995   -0.8824    0.0000 C   0  0  0  0  0  0  0  0  0  0  0  0
   16.4140   -1.2949    0.0000 C   0  0  0  0  0  0  0  0  0  0  0  0
   17.1285   -0.8824    0.0000 N   0  0  0  0  0  0  0  0  0  0  0  0
   16.4140   -2.1199    0.0000 O   0  0  0  0  0  0  0  0  0  0  0  0
   14.2706   -0.0574    0.0000 C   0  0  0  0  0  0  0  0  0  0  0  0
   14.9851    0.3551    0.0000 N   0  0  0  0  0  0  0  0  0  0  0  0
   12.0166   -3.3574    0.0000 H   0  0  0  0  0  0  0  0  0  0  0  0
   12.8416   -4.1824    0.0000 H   0  0  0  0  0  0  0  0  0  0  0  0
   13.6666   -3.3574    0.0000 H   0  0  0  0  0  0  0  0  0  0  0  0
   13.5561   -2.9449    0.0000 H   0  0  0  0  0  0  0  0  0  0  0  0
   14.3314   -2.4021    0.0000 H   0  0  0  0  0  0  0  0  0  0  0  0
   14.3314   -1.8378    0.0000 H   0  0  0  0  0  0  0  0  0  0  0  0
   12.8416   -1.7074    0.0000 H   0  0  0  0  0  0  0  0  0  0  0  0
   11.3036   -2.1679    0.0000 H   0  0  0  0  0  0  0  0  0  0  0  0
   11.6738   -2.8092    0.0000 H   0  0  0  0  0  0  0  0  0  0  0  0
   11.4127   -1.7074    0.0000 H   0  0  0  0  0  0  0  0  0  0  0  0
   11.4127   -0.0574    0.0000 H   0  0  0  0  0  0  0  0  0  0  0  0
    9.9838   -1.7074    0.0000 H   0  0  0  0  0  0  0  0  0  0  0  0
    8.8568   -2.0094    0.0000 H   0  0  0  0  0  0  0  0  0  0  0  0
    8.5548   -1.7074    0.0000 H   0  0  0  0  0  0  0  0  0  0  0  0
    7.0435   -1.9064    0.0000 H   0  0  0  0  0  0  0  0  0  0  0  0
    7.4278   -2.8344    0.0000 H   0  0  0  0  0  0  0  0  0  0  0  0
    8.4237   -2.7033    0.0000 H   0  0  0  0  0  0  0  0  0  0  0  0
    7.1259   -0.0574    0.0000 H   0  0  0  0  0  0  0  0  0  0  0  0
    6.4114   -0.4699    0.0000 H   0  0  0  0  0  0  0  0  0  0  0  0
    6.3289    0.4728    0.0000 H   0  0  0  0  0  0  0  0  0  0  0  0
    5.8402    0.7550    0.0000 H   0  0  0  0  0  0  0  0  0  0  0  0
    4.6015    1.0868    0.0000 H   0  0  0  0  0  0  0  0  0  0  0  0
    4.9825   -2.1199    0.0000 H   0  0  0  0  0  0  0  0  0  0  0  0
    3.5535   -0.4699    0.0000 H   0  0  0  0  0  0  0  0  0  0  0  0
    2.4266   -0.1680    0.0000 H   0  0  0  0  0  0  0  0  0  0  0  0
    0.3254   -2.0322    0.0000 H   0  0  0  0  0  0  0  0  0  0  0  0
    1.0659   -2.0322    0.0000 H   0  0  0  0  0  0  0  0  0  0  0  0
   -0.7333   -2.1199    0.0000 H   0  0  0  0  0  0  0  0  0  0  0  0
   -2.1622   -1.2949    0.0000 H   0  0  0  0  0  0  0  0  0  0  0  0
   -2.1622    0.3551    0.0000 H   0  0  0  0  0  0  0  0  0  0  0  0
   -0.7333    1.1801    0.0000 H   0  0  0  0  0  0  0  0  0  0  0  0
    0.6956    0.3551    0.0000 H   0  0  0  0  0  0  0  0  0  0  0  0
    2.8391   -1.7074    0.0000 H   0  0  0  0  0  0  0  0  0  0  0  0
    2.1246   -2.9449    0.0000 H   0  0  0  0  0  0  0  0  0  0  0  0
    2.8391   -3.3574    0.0000 H   0  0  0  0  0  0  0  0  0  0  0  0
    3.5535   -2.9449    0.0000 H   0  0  0  0  0  0  0  0  0  0  0  0
    4.6805   -3.2469    0.0000 H   0  0  0  0  0  0  0  0  0  0  0  0
    9.2693   -0.4699    0.0000 H   0  0  0  0  0  0  0  0  0  0  0  0
    9.9838    0.7676    0.0000 H   0  0  0  0  0  0  0  0  0  0  0  0
    9.2693    1.1801    0.0000 H   0  0  0  0  0  0  0  0  0  0  0  0
    8.5548    0.7676    0.0000 H   0  0  0  0  0  0  0  0  0  0  0  0
   11.3302    0.8853    0.0000 H   0  0  0  0  0  0  0  0  0  0  0  0
   10.8415    1.1675    0.0000 H   0  0  0  0  0  0  0  0  0  0  0  0
   10.6982   -0.4699    0.0000 H   0  0  0  0  0  0  0  0  0  0  0  0
   13.5561   -0.4699    0.0000 H   0  0  0  0  0  0  0  0  0  0  0  0
   14.9851   -0.4699    0.0000 H   0  0  0  0  0  0  0  0  0  0  0  0
   15.0780   -2.1147    0.0000 H   0  0  0  0  0  0  0  0  0  0  0  0
   15.7217   -1.6665    0.0000 H   0  0  0  0  0  0  0  0  0  0  0  0
   16.3315   -0.3522    0.0000 H   0  0  0  0  0  0  0  0  0  0  0  0
   15.8428   -0.0700    0.0000 H   0  0  0  0  0  0  0  0  0  0  0  0
   17.8063   -1.3527    0.0000 H   0  0  0  0  0  0  0  0  0  0  0  0
   17.8348   -0.4562    0.0000 H   0  0  0  0  0  0  0  0  0  0  0  0
   13.8581    0.6570    0.0000 H   0  0  0  0  0  0  0  0  0  0  0  0
   14.9589    1.1796    0.0000 H   0  0  0  0  0  0  0  0  0  0  0  0
  1  2  1  0  0  0  0
  2  3  1  0  0  0  0
  2  4  1  0  0  0  0
  5  4  1  0  0  0  0
  5  6  1  0  0  0  0
  6  7  1  0  0  0  0
  7  8  2  0  0  0  0
  9  7  1  0  0  0  0
  9 10  1  0  0  0  0
 10 11  1  0  0  0  0
 11 12  2  0  0  0  0
 13 11  1  0  0  0  0
 13 14  1  0  0  0  0
 13 15  1  0  0  0  0
 15 16  1  0  0  0  0
 16 17  2  0  0  0  0
 16 18  1  0  0  0  0
 18 19  1  0  0  0  0
 19 20  1  0  0  0  0
 18 21  1  0  0  0  0
 21 22  1  0  0  0  0
 22 23  2  0  0  0  0
 22 24  1  0  0  0  0
 24 25  1  0  0  0  0
 25 26  1  0  0  0  0
 26 27  2  0  0  0  0
 26 28  1  0  0  0  0
 28 29  1  0  0  0  0
 29 30  1  0  0  0  0
 30 31  4  0  0  0  0
 31 32  4  0  0  0  0
 32 33  4  0  0  0  0
 33 34  4  0  0  0  0
 34 35  4  0  0  0  0
 30 35  4  0  0  0  0
 24 36  1  0  0  0  0
 36 37  1  0  0  0  0
 36 38  1  0  0  0  0
  9 39  1  0  0  0  0
 39 40  1  0  0  0  0
 39 41  1  0  0  0  0
  5 42  1  0  0  0  0
 42 43  2  0  0  0  0
 42 44  1  0  0  0  0
 45 44  1  0  0  0  0
 45 46  1  0  0  0  0
 46 47  1  0  0  0  0
 47 48  1  0  0  0  0
 48 49  1  0  0  0  0
 48 50  2  0  0  0  0
 45 51  1  0  0  0  0
 51 52  2  0  0  0  0
  1 53  1  0  0  0  0
  1 54  1  0  0  0  0
  1 55  1  0  0  0  0
  2 56  1  0  0  0  0
  3 57  1  0  0  0  0
  3 58  1  0  0  0  0
  3 59  1  0  0  0  0
  4 60  1  0  0  0  0
  4 61  1  0  0  0  0
  5 62  1  0  0  0  0
  6 63  1  0  0  0  0
  9 64  1  0  0  0  0
 10 65  1  0  0  0  0
 13 66  1  0  0  0  0
 14 67  1  0  0  0  0
 14 68  1  0  0  0  0
 14 69  1  0  0  0  0
 15 70  1  0  0  0  0
 18 71  1  0  0  0  0
 19 72  1  0  0  0  0
 19 73  1  0  0  0  0
 20 74  1  0  0  0  0
 21 75  1  0  0  0  0
 24 76  1  0  0  0  0
 25 77  1  0  0  0  0
 29 78  1  0  0  0  0
 29 79  1  0  0  0  0
 31 80  1  0  0  0  0
 32 81  1  0  0  0  0
 33 82  1  0  0  0  0
 34 83  1  0  0  0  0
 35 84  1  0  0  0  0
 36 85  1  0  0  0  0
 37 86  1  0  0  0  0
 37 87  1  0  0  0  0
 37 88  1  0  0  0  0
 38 89  1  0  0  0  0
 39 90  1  0  0  0  0
 40 91  1  0  0  0  0
 40 92  1  0  0  0  0
 40 93  1  0  0  0  0
 41 94  1  0  0  0  0
 41 95  1  0  0  0  0
 41 96  1  0  0  0  0
 44 97  1  0  0  0  0
 45 98  1  0  0  0  0
 46 99  1  0  0  0  0
 46100  1  0  0  0  0
 47101  1  0  0  0  0
 47102  1  0  0  0  0
 49103  1  0  0  0  0
 49104  1  0  0  0  0
 51105  1  0  0  0  0
 52106  1  4  0  0  0
M  END
> <Compound_name>


> <Standard Type>
IC50

> <Standard Relation>
=

> <Standard Value>
39000.0

> <Standard Units>
nM

> <Outcome>
Inactive

> <InChIKey>
PMZBQRDNAKXKGQ-UHFFFAOYNA-N

> <Molecule ChEMBL ID>


$$$$

  Mrv1817 04132013522D          

 87 88  0  0  0  0            999 V2000
    3.6670   -8.7058    0.0000 C   0  0  0  0  0  0  0  0  0  0  0  0
    2.9043   -8.3913    0.0000 C   0  0  0  0  0  0  0  0  0  0  0  0
    2.2506   -8.8945    0.0000 C   0  0  0  0  0  0  0  0  0  0  0  0
    2.7954   -7.5735    0.0000 C   0  0  0  0  0  0  0  0  0  0  0  0
    2.0327   -7.2590    0.0000 N   0  0  0  0  0  0  0  0  0  0  0  0
    1.3789   -7.7622    0.0000 C   0  0  0  0  0  0  0  0  0  0  0  0
    1.4879   -8.5800    0.0000 O   0  0  0  0  0  0  0  0  0  0  0  0
    0.6162   -7.4477    0.0000 C   0  0  0  0  0  0  0  0  0  0  0  0
    0.5073   -6.6299    0.0000 C   0  0  0  0  0  0  0  0  0  0  0  0
   -0.0375   -7.9509    0.0000 N   0  0  0  0  0  0  0  0  0  0  0  0
   -0.8002   -7.6364    0.0000 C   0  0  0  0  0  0  0  0  0  0  0  0
   -0.9091   -6.8186    0.0000 O   0  0  0  0  0  0  0  0  0  0  0  0
   -1.4539   -8.1397    0.0000 C   0  0  0  0  0  0  0  0  0  0  0  0
   -1.3450   -8.9574    0.0000 C   0  0  0  0  0  0  0  0  0  0  0  0
   -1.9987   -9.4607    0.0000 O   0  0  0  0  0  0  0  0  0  0  0  0
   -2.2166   -7.8251    0.0000 N   0  0  0  0  0  0  0  0  0  0  0  0
   -2.8703   -8.3284    0.0000 C   0  0  0  0  0  0  0  0  0  0  0  0
   -3.6330   -8.0138    0.0000 C   0  0  0  0  0  0  0  0  0  0  0  0
   -2.7614   -9.1461    0.0000 O   0  0  0  0  0  0  0  0  0  0  0  0
    3.4491   -7.0703    0.0000 C   0  0  0  0  0  0  0  0  0  0  0  0
    3.3401   -6.2525    0.0000 O   0  0  0  0  0  0  0  0  0  0  0  0
    4.2118   -7.3848    0.0000 N   0  0  0  0  0  0  0  0  0  0  0  0
    4.8655   -6.8815    0.0000 C   0  0  0  0  0  0  0  0  0  0  0  0
    4.7566   -6.0638    0.0000 C   0  0  0  0  0  0  0  0  0  0  0  0
    5.4103   -5.5605    0.0000 C   0  0  0  0  0  0  0  0  0  0  0  0
    5.3013   -4.7427    0.0000 C   0  0  0  0  0  0  0  0  0  0  0  0
    5.9551   -4.2395    0.0000 C   0  0  0  0  0  0  0  0  0  0  0  0
    6.7178   -4.5540    0.0000 C   0  0  0  0  0  0  0  0  0  0  0  0
    6.8267   -5.3718    0.0000 C   0  0  0  0  0  0  0  0  0  0  0  0
    6.1730   -5.8750    0.0000 C   0  0  0  0  0  0  0  0  0  0  0  0
    5.6282   -7.1961    0.0000 C   0  0  0  0  0  0  0  0  0  0  0  0
    5.7372   -8.0138    0.0000 O   0  0  0  0  0  0  0  0  0  0  0  0
    6.2819   -6.6928    0.0000 N   0  0  0  0  0  0  0  0  0  0  0  0
    7.0446   -7.0073    0.0000 C   0  0  0  0  0  0  0  0  0  0  0  0
    7.6984   -6.5041    0.0000 C   0  0  0  0  0  0  0  0  0  0  0  0
    8.4611   -6.8186    0.0000 C   0  0  0  0  0  0  0  0  0  0  0  0
    9.1638   -6.3865    0.0000 C   0  0  0  0  0  0  0  0  0  0  0  0
    9.7920   -6.9213    0.0000 N   0  0  0  0  0  0  0  0  0  0  0  0
    9.4775   -7.6840    0.0000 C   0  0  0  0  0  0  0  0  0  0  0  0
    8.6549   -7.6205    0.0000 N   0  0  0  0  0  0  0  0  0  0  0  0
    7.1536   -7.8251    0.0000 C   0  0  0  0  0  0  0  0  0  0  0  0
    6.4999   -8.3284    0.0000 O   0  0  0  0  0  0  0  0  0  0  0  0
    3.3525   -9.4685    0.0000 H   0  0  0  0  0  0  0  0  0  0  0  0
    4.4297   -9.0203    0.0000 H   0  0  0  0  0  0  0  0  0  0  0  0
    3.9815   -7.9431    0.0000 H   0  0  0  0  0  0  0  0  0  0  0  0
    3.0133   -9.2090    0.0000 H   0  0  0  0  0  0  0  0  0  0  0  0
    1.6942   -9.5036    0.0000 H   0  0  0  0  0  0  0  0  0  0  0  0
    2.2159   -9.7188    0.0000 H   0  0  0  0  0  0  0  0  0  0  0  0
    2.1416   -8.0767    0.0000 H   0  0  0  0  0  0  0  0  0  0  0  0
    3.5581   -7.8880    0.0000 H   0  0  0  0  0  0  0  0  0  0  0  0
    1.9237   -6.4412    0.0000 H   0  0  0  0  0  0  0  0  0  0  0  0
    1.2700   -6.9444    0.0000 H   0  0  0  0  0  0  0  0  0  0  0  0
    1.0085   -5.9746    0.0000 H   0  0  0  0  0  0  0  0  0  0  0  0
    0.0040   -5.9762    0.0000 H   0  0  0  0  0  0  0  0  0  0  0  0
   -0.2544   -6.9468    0.0000 H   0  0  0  0  0  0  0  0  0  0  0  0
    0.0715   -8.7687    0.0000 H   0  0  0  0  0  0  0  0  0  0  0  0
   -0.6912   -8.4542    0.0000 H   0  0  0  0  0  0  0  0  0  0  0  0
   -1.0957   -9.7439    0.0000 H   0  0  0  0  0  0  0  0  0  0  0  0
   -0.6485   -9.3996    0.0000 H   0  0  0  0  0  0  0  0  0  0  0  0
   -2.2797  -10.2364    0.0000 H   0  0  0  0  0  0  0  0  0  0  0  0
   -2.3256   -7.0073    0.0000 H   0  0  0  0  0  0  0  0  0  0  0  0
   -3.3185   -7.2511    0.0000 H   0  0  0  0  0  0  0  0  0  0  0  0
   -4.3957   -7.6993    0.0000 H   0  0  0  0  0  0  0  0  0  0  0  0
   -3.9476   -8.7765    0.0000 H   0  0  0  0  0  0  0  0  0  0  0  0
    4.8671   -7.8860    0.0000 H   0  0  0  0  0  0  0  0  0  0  0  0
    4.1028   -6.5670    0.0000 H   0  0  0  0  0  0  0  0  0  0  0  0
    4.5073   -5.2773    0.0000 H   0  0  0  0  0  0  0  0  0  0  0  0
    4.0601   -5.6216    0.0000 H   0  0  0  0  0  0  0  0  0  0  0  0
    5.5193   -6.3783    0.0000 H   0  0  0  0  0  0  0  0  0  0  0  0
    5.2097   -3.9228    0.0000 H   0  0  0  0  0  0  0  0  0  0  0  0
    4.5527   -4.3962    0.0000 H   0  0  0  0  0  0  0  0  0  0  0  0
    6.6106   -3.7386    0.0000 H   0  0  0  0  0  0  0  0  0  0  0  0
    5.8519   -3.4210    0.0000 H   0  0  0  0  0  0  0  0  0  0  0  0
    7.4803   -4.8690    0.0000 H   0  0  0  0  0  0  0  0  0  0  0  0
    7.3721   -4.0516    0.0000 H   0  0  0  0  0  0  0  0  0  0  0  0
    6.9356   -6.1896    0.0000 H   0  0  0  0  0  0  0  0  0  0  0  0
    7.5894   -5.6865    0.0000 H   0  0  0  0  0  0  0  0  0  0  0  0
    6.3503   -5.0693    0.0000 H   0  0  0  0  0  0  0  0  0  0  0  0
    5.7909   -5.1439    0.0000 H   0  0  0  0  0  0  0  0  0  0  0  0
    6.3909   -7.5106    0.0000 H   0  0  0  0  0  0  0  0  0  0  0  0
    7.8073   -7.3219    0.0000 H   0  0  0  0  0  0  0  0  0  0  0  0
    8.4848   -6.2548    0.0000 H   0  0  0  0  0  0  0  0  0  0  0  0
    8.1405   -5.8076    0.0000 H   0  0  0  0  0  0  0  0  0  0  0  0
    9.5215   -5.6431    0.0000 H   0  0  0  0  0  0  0  0  0  0  0  0
    9.9096   -8.3867    0.0000 H   0  0  0  0  0  0  0  0  0  0  0  0
    8.4846   -8.4278    0.0000 H   0  0  0  0  0  0  0  0  0  0  0  0
    7.6568   -8.4789    0.0000 H   0  0  0  0  0  0  0  0  0  0  0  0
  1  2  1  0  0  0  0
  2  3  1  0  0  0  0
  4  2  1  0  0  0  0
  4  5  1  0  0  0  0
  5  6  1  0  0  0  0
  6  7  2  0  0  0  0
  8  6  1  0  0  0  0
  8  9  1  0  0  0  0
  8 10  1  0  0  0  0
 10 11  1  0  0  0  0
 11 12  2  0  0  0  0
 13 11  1  0  0  0  0
 13 14  1  0  0  0  0
 14 15  1  0  0  0  0
 13 16  1  0  0  0  0
 16 17  1  0  0  0  0
 17 18  1  0  0  0  0
 17 19  2  0  0  0  0
  4 20  1  0  0  0  0
 20 21  2  0  0  0  0
 20 22  1  0  0  0  0
 23 22  1  0  0  0  0
 23 24  1  0  0  0  0
 24 25  1  0  0  0  0
 25 26  1  0  0  0  0
 26 27  1  0  0  0  0
 27 28  1  0  0  0  0
 28 29  1  0  0  0  0
 29 30  1  0  0  0  0
 25 30  1  0  0  0  0
 23 31  1  0  0  0  0
 31 32  2  0  0  0  0
 31 33  1  0  0  0  0
 34 33  1  0  0  0  0
 34 35  1  0  0  0  0
 35 36  1  0  0  0  0
 36 37  4  0  0  0  0
 37 38  4  0  0  0  0
 38 39  4  0  0  0  0
 39 40  4  0  0  0  0
 36 40  4  0  0  0  0
 34 41  1  0  0  0  0
 41 42  2  0  0  0  0
  1 43  1  0  0  0  0
  1 44  1  0  0  0  0
  1 45  1  0  0  0  0
  2 46  1  0  0  0  0
  3 47  1  0  0  0  0
  3 48  1  0  0  0  0
  3 49  1  0  0  0  0
  4 50  1  0  0  0  0
  5 51  1  0  0  0  0
  8 52  1  0  0  0  0
  9 53  1  0  0  0  0
  9 54  1  0  0  0  0
  9 55  1  0  0  0  0
 10 56  1  0  0  0  0
 13 57  1  0  0  0  0
 14 58  1  0  0  0  0
 14 59  1  0  0  0  0
 15 60  1  0  0  0  0
 16 61  1  0  0  0  0
 18 62  1  0  0  0  0
 18 63  1  0  0  0  0
 18 64  1  0  0  0  0
 22 65  1  0  0  0  0
 23 66  1  0  0  0  0
 24 67  1  0  0  0  0
 24 68  1  0  0  0  0
 25 69  1  0  0  0  0
 26 70  1  0  0  0  0
 26 71  1  0  0  0  0
 27 72  1  0  0  0  0
 27 73  1  0  0  0  0
 28 74  1  0  0  0  0
 28 75  1  0  0  0  0
 29 76  1  0  0  0  0
 29 77  1  0  0  0  0
 30 78  1  0  0  0  0
 30 79  1  0  0  0  0
 33 80  1  0  0  0  0
 34 81  1  0  0  0  0
 35 82  1  0  0  0  0
 35 83  1  0  0  0  0
 37 84  1  0  0  0  0
 39 85  1  0  0  0  0
 40 86  1  0  0  0  0
 41 87  1  0  0  0  0
M  END
> <Compound_name>


> <Standard Type>
IC50

> <Standard Relation>
=

> <Standard Value>
65.0

> <Standard Units>
nM

> <Outcome>
Active

> <InChIKey>
SENRSUXIIOUWCL-UHFFFAOYNA-N

> <Molecule ChEMBL ID>


$$$$

  Mrv1817 04132013522D          

 59 62  0  0  0  0            999 V2000
    0.0075    3.3844    0.0000 Br  0  0  0  0  0  0  0  0  0  0  0  0
    0.0075    2.5594    0.0000 C   0  0  0  0  0  0  0  0  0  0  0  0
    0.7220    2.1469    0.0000 C   0  0  0  0  0  0  0  0  0  0  0  0
    0.7220    1.3219    0.0000 C   0  0  0  0  0  0  0  0  0  0  0  0
    0.0075    0.9094    0.0000 C   0  0  0  0  0  0  0  0  0  0  0  0
   -0.7069    1.3219    0.0000 C   0  0  0  0  0  0  0  0  0  0  0  0
   -0.7069    2.1469    0.0000 C   0  0  0  0  0  0  0  0  0  0  0  0
    0.0075    0.0844    0.0000 C   0  0  0  0  0  0  0  0  0  0  0  0
   -0.7069   -0.3281    0.0000 O   0  0  0  0  0  0  0  0  0  0  0  0
    0.7220   -0.3281    0.0000 N   0  0  0  0  0  0  0  0  0  0  0  0
    1.4365    0.0844    0.0000 C   0  0  0  0  0  0  0  0  0  0  0  0
    2.1509   -0.3281    0.0000 C   0  0  0  0  0  0  0  0  0  0  0  0
    2.8654    0.0844    0.0000 C   0  0  0  0  0  0  0  0  0  0  0  0
    3.5799   -0.3281    0.0000 C   0  0  0  0  0  0  0  0  0  0  0  0
    3.5799   -1.1531    0.0000 C   0  0  0  0  0  0  0  0  0  0  0  0
    2.8654   -1.5656    0.0000 C   0  0  0  0  0  0  0  0  0  0  0  0
    2.1509   -1.1531    0.0000 C   0  0  0  0  0  0  0  0  0  0  0  0
    1.4365   -1.5656    0.0000 C   0  0  0  0  0  0  0  0  0  0  0  0
    0.7220   -1.1531    0.0000 C   0  0  0  0  0  0  0  0  0  0  0  0
    0.0075   -1.5656    0.0000 C   0  0  0  0  0  0  0  0  0  0  0  0
    0.0075   -2.3906    0.0000 N   0  0  0  0  0  0  0  0  0  0  0  0
   -0.7069   -2.8031    0.0000 C   0  0  0  0  0  0  0  0  0  0  0  0
   -0.7069   -3.6281    0.0000 C   0  0  0  0  0  0  0  0  0  0  0  0
   -1.4214   -4.0406    0.0000 C   0  0  0  0  0  0  0  0  0  0  0  0
   -1.5076   -4.8610    0.0000 C   0  0  0  0  0  0  0  0  0  0  0  0
   -2.3146   -5.0326    0.0000 N   0  0  0  0  0  0  0  0  0  0  0  0
   -2.7271   -4.3181    0.0000 C   0  0  0  0  0  0  0  0  0  0  0  0
   -2.1751   -3.7050    0.0000 N   0  0  0  0  0  0  0  0  0  0  0  0
   -1.4214   -2.3906    0.0000 C   0  0  0  0  0  0  0  0  0  0  0  0
   -1.4214   -1.5656    0.0000 O   0  0  0  0  0  0  0  0  0  0  0  0
    1.4365    2.5594    0.0000 H   0  0  0  0  0  0  0  0  0  0  0  0
    1.4365    0.9094    0.0000 H   0  0  0  0  0  0  0  0  0  0  0  0
   -1.4214    0.9094    0.0000 H   0  0  0  0  0  0  0  0  0  0  0  0
   -1.4214    2.5594    0.0000 H   0  0  0  0  0  0  0  0  0  0  0  0
    0.7220    0.4969    0.0000 H   0  0  0  0  0  0  0  0  0  0  0  0
    2.1509    0.4969    0.0000 H   0  0  0  0  0  0  0  0  0  0  0  0
    2.8654   -0.7406    0.0000 H   0  0  0  0  0  0  0  0  0  0  0  0
    3.4974    0.6147    0.0000 H   0  0  0  0  0  0  0  0  0  0  0  0
    3.0087    0.8969    0.0000 H   0  0  0  0  0  0  0  0  0  0  0  0
    4.3643   -0.5838    0.0000 H   0  0  0  0  0  0  0  0  0  0  0  0
    4.3390   -0.0050    0.0000 H   0  0  0  0  0  0  0  0  0  0  0  0
    3.7560   -1.9591    0.0000 H   0  0  0  0  0  0  0  0  0  0  0  0
    4.2444   -1.6421    0.0000 H   0  0  0  0  0  0  0  0  0  0  0  0
    2.4952   -2.3028    0.0000 H   0  0  0  0  0  0  0  0  0  0  0  0
    3.2357   -2.3028    0.0000 H   0  0  0  0  0  0  0  0  0  0  0  0
    2.1509   -1.9781    0.0000 H   0  0  0  0  0  0  0  0  0  0  0  0
    0.8045   -2.0959    0.0000 H   0  0  0  0  0  0  0  0  0  0  0  0
    1.2932   -2.3780    0.0000 H   0  0  0  0  0  0  0  0  0  0  0  0
    0.0075   -0.7406    0.0000 H   0  0  0  0  0  0  0  0  0  0  0  0
   -0.7677   -1.2834    0.0000 H   0  0  0  0  0  0  0  0  0  0  0  0
   -0.7677   -1.8477    0.0000 H   0  0  0  0  0  0  0  0  0  0  0  0
    0.3581   -3.1374    0.0000 H   0  0  0  0  0  0  0  0  0  0  0  0
    0.0075   -3.2156    0.0000 H   0  0  0  0  0  0  0  0  0  0  0  0
   -0.5637   -4.4405    0.0000 H   0  0  0  0  0  0  0  0  0  0  0  0
   -0.0749   -4.1584    0.0000 H   0  0  0  0  0  0  0  0  0  0  0  0
   -0.8945   -5.4131    0.0000 H   0  0  0  0  0  0  0  0  0  0  0  0
   -3.5476   -4.2319    0.0000 H   0  0  0  0  0  0  0  0  0  0  0  0
   -2.3466   -2.8980    0.0000 H   0  0  0  0  0  0  0  0  0  0  0  0
   -2.1359   -2.8031    0.0000 H   0  0  0  0  0  0  0  0  0  0  0  0
  1  2  1  0  0  0  0
  2  3  4  0  0  0  0
  3  4  4  0  0  0  0
  4  5  4  0  0  0  0
  5  6  4  0  0  0  0
  6  7  4  0  0  0  0
  2  7  4  0  0  0  0
  5  8  1  0  0  0  0
  8  9  2  0  0  0  0
  8 10  1  0  0  0  0
 10 11  1  0  0  0  0
 12 11  1  0  0  0  0
 12 13  1  0  0  0  0
 13 14  1  0  0  0  0
 14 15  1  0  0  0  0
 15 16  1  0  0  0  0
 17 16  1  0  0  0  0
 12 17  1  0  0  0  0
 17 18  1  0  0  0  0
 19 18  1  0  0  0  0
 19 10  1  0  0  0  0
 19 20  1  0  0  0  0
 20 21  1  0  0  0  0
 22 21  1  0  0  0  0
 22 23  1  0  0  0  0
 23 24  1  0  0  0  0
 24 25  4  0  0  0  0
 25 26  4  0  0  0  0
 26 27  4  0  0  0  0
 27 28  4  0  0  0  0
 24 28  4  0  0  0  0
 22 29  1  0  0  0  0
 29 30  2  0  0  0  0
  3 31  1  0  0  0  0
  4 32  1  0  0  0  0
  6 33  1  0  0  0  0
  7 34  1  0  0  0  0
 11 35  1  0  0  0  0
 11 36  1  0  0  0  0
 12 37  1  0  0  0  0
 13 38  1  0  0  0  0
 13 39  1  0  0  0  0
 14 40  1  0  0  0  0
 14 41  1  0  0  0  0
 15 42  1  0  0  0  0
 15 43  1  0  0  0  0
 16 44  1  0  0  0  0
 16 45  1  0  0  0  0
 17 46  1  0  0  0  0
 18 47  1  0  0  0  0
 18 48  1  0  0  0  0
 19 49  1  0  0  0  0
 20 50  1  0  0  0  0
 20 51  1  0  0  0  0
 21 52  1  0  0  0  0
 22 53  1  0  0  0  0
 23 54  1  0  0  0  0
 23 55  1  0  0  0  0
 25 56  1  0  0  0  0
 27 57  1  0  0  0  0
 28 58  1  0  0  0  0
 29 59  1  0  0  0  0
M  END
> <Compound_name>
(2S)-2-[[(3S,4aR,8aS)-2-(4-bromobenzoyl)-3,4,4a,5,6,7,8,8a-octahydro-1H-isoquinolin-3-yl]methylamino]-3-(1H-imidazol-5-yl)propanal

> <Standard Type>
IC50

> <Standard Relation>
=

> <Standard Value>
63000.0

> <Standard Units>
nM

> <Outcome>
Inactive

> <InChIKey>
SKLHMRHVVDDIOX-UHFFFAOYNA-N

> <Molecule ChEMBL ID>


$$$$

  Mrv1817 04132013522D          

 80 79  0  0  0  0            999 V2000
   12.3644    2.1700    0.0000 C   0  0  0  0  0  0  0  0  0  0  0  0
   12.3644    2.9950    0.0000 C   0  0  0  0  0  0  0  0  0  0  0  0
   13.0788    3.4075    0.0000 C   0  0  0  0  0  0  0  0  0  0  0  0
   11.6499    3.4075    0.0000 C   0  0  0  0  0  0  0  0  0  0  0  0
   11.6499    4.2325    0.0000 C   0  0  0  0  0  0  0  0  0  0  0  0
   10.9354    4.6450    0.0000 N   0  0  0  0  0  0  0  0  0  0  0  0
   10.2210    4.2325    0.0000 C   0  0  0  0  0  0  0  0  0  0  0  0
   10.2210    3.4075    0.0000 O   0  0  0  0  0  0  0  0  0  0  0  0
    9.5065    4.6450    0.0000 C   0  0  0  0  0  0  0  0  0  0  0  0
    8.7920    4.2325    0.0000 N   0  0  0  0  0  0  0  0  0  0  0  0
    8.0775    4.6450    0.0000 C   0  0  0  0  0  0  0  0  0  0  0  0
    8.0775    5.4700    0.0000 O   0  0  0  0  0  0  0  0  0  0  0  0
    7.3631    4.2325    0.0000 C   0  0  0  0  0  0  0  0  0  0  0  0
    7.3631    3.4075    0.0000 C   0  0  0  0  0  0  0  0  0  0  0  0
    6.6486    4.6450    0.0000 N   0  0  0  0  0  0  0  0  0  0  0  0
    5.9341    4.2325    0.0000 C   0  0  0  0  0  0  0  0  0  0  0  0
    5.9341    3.4075    0.0000 O   0  0  0  0  0  0  0  0  0  0  0  0
    5.2197    4.6450    0.0000 O   0  0  0  0  0  0  0  0  0  0  0  0
    4.5052    4.2325    0.0000 C   0  0  0  0  0  0  0  0  0  0  0  0
    3.7907    3.8200    0.0000 C   0  0  0  0  0  0  0  0  0  0  0  0
    4.9177    3.5180    0.0000 C   0  0  0  0  0  0  0  0  0  0  0  0
    4.0927    4.9470    0.0000 C   0  0  0  0  0  0  0  0  0  0  0  0
    9.5065    5.4700    0.0000 C   0  0  0  0  0  0  0  0  0  0  0  0
    8.7920    5.8825    0.0000 C   0  0  0  0  0  0  0  0  0  0  0  0
   10.2210    5.8825    0.0000 C   0  0  0  0  0  0  0  0  0  0  0  0
   12.3644    4.6450    0.0000 C   0  0  0  0  0  0  0  0  0  0  0  0
   12.3644    5.4700    0.0000 O   0  0  0  0  0  0  0  0  0  0  0  0
   13.0788    4.2325    0.0000 N   0  0  0  0  0  0  0  0  0  0  0  0
   13.7933    4.6450    0.0000 C   0  0  0  0  0  0  0  0  0  0  0  0
   14.5078    4.2325    0.0000 C   0  0  0  0  0  0  0  0  0  0  0  0
   15.2223    4.6450    0.0000 C   0  0  0  0  0  0  0  0  0  0  0  0
   15.9367    4.2325    0.0000 C   0  0  0  0  0  0  0  0  0  0  0  0
   16.6512    4.6450    0.0000 N   0  0  0  0  0  0  0  0  0  0  0  0
   15.9367    3.4075    0.0000 O   0  0  0  0  0  0  0  0  0  0  0  0
   13.7933    5.4700    0.0000 C   0  0  0  0  0  0  0  0  0  0  0  0
   14.5078    5.8825    0.0000 N   0  0  0  0  0  0  0  0  0  0  0  0
   11.5394    2.1700    0.0000 H   0  0  0  0  0  0  0  0  0  0  0  0
   12.3644    1.3450    0.0000 H   0  0  0  0  0  0  0  0  0  0  0  0
   13.1894    2.1700    0.0000 H   0  0  0  0  0  0  0  0  0  0  0  0
   13.0788    2.5825    0.0000 H   0  0  0  0  0  0  0  0  0  0  0  0
   13.8541    3.1253    0.0000 H   0  0  0  0  0  0  0  0  0  0  0  0
   13.8541    3.6897    0.0000 H   0  0  0  0  0  0  0  0  0  0  0  0
   12.3644    3.8200    0.0000 H   0  0  0  0  0  0  0  0  0  0  0  0
   10.8263    3.3595    0.0000 H   0  0  0  0  0  0  0  0  0  0  0  0
   11.1966    2.7182    0.0000 H   0  0  0  0  0  0  0  0  0  0  0  0
   10.9354    3.8200    0.0000 H   0  0  0  0  0  0  0  0  0  0  0  0
   10.9354    5.4700    0.0000 H   0  0  0  0  0  0  0  0  0  0  0  0
    9.5065    3.8200    0.0000 H   0  0  0  0  0  0  0  0  0  0  0  0
    8.3795    3.5180    0.0000 H   0  0  0  0  0  0  0  0  0  0  0  0
    8.0775    3.8200    0.0000 H   0  0  0  0  0  0  0  0  0  0  0  0
    6.5662    3.6210    0.0000 H   0  0  0  0  0  0  0  0  0  0  0  0
    6.9506    2.6930    0.0000 H   0  0  0  0  0  0  0  0  0  0  0  0
    7.9464    2.8241    0.0000 H   0  0  0  0  0  0  0  0  0  0  0  0
    6.6486    5.4700    0.0000 H   0  0  0  0  0  0  0  0  0  0  0  0
    3.3782    4.5345    0.0000 H   0  0  0  0  0  0  0  0  0  0  0  0
    3.0763    3.4075    0.0000 H   0  0  0  0  0  0  0  0  0  0  0  0
    4.2032    3.1055    0.0000 H   0  0  0  0  0  0  0  0  0  0  0  0
    5.0254    2.7001    0.0000 H   0  0  0  0  0  0  0  0  0  0  0  0
    5.7146    3.3045    0.0000 H   0  0  0  0  0  0  0  0  0  0  0  0
    5.4199    4.1726    0.0000 H   0  0  0  0  0  0  0  0  0  0  0  0
    4.9106    5.0547    0.0000 H   0  0  0  0  0  0  0  0  0  0  0  0
    4.3062    5.7439    0.0000 H   0  0  0  0  0  0  0  0  0  0  0  0
    3.4382    5.4492    0.0000 H   0  0  0  0  0  0  0  0  0  0  0  0
    8.7920    5.0575    0.0000 H   0  0  0  0  0  0  0  0  0  0  0  0
    9.5065    6.2950    0.0000 H   0  0  0  0  0  0  0  0  0  0  0  0
    8.7920    6.7075    0.0000 H   0  0  0  0  0  0  0  0  0  0  0  0
    8.0775    6.2950    0.0000 H   0  0  0  0  0  0  0  0  0  0  0  0
   10.8529    6.4128    0.0000 H   0  0  0  0  0  0  0  0  0  0  0  0
   10.3642    6.6950    0.0000 H   0  0  0  0  0  0  0  0  0  0  0  0
   10.2210    5.0575    0.0000 H   0  0  0  0  0  0  0  0  0  0  0  0
   13.0788    5.0575    0.0000 H   0  0  0  0  0  0  0  0  0  0  0  0
   14.5078    5.0575    0.0000 H   0  0  0  0  0  0  0  0  0  0  0  0
   14.6008    3.4128    0.0000 H   0  0  0  0  0  0  0  0  0  0  0  0
   15.2444    3.8610    0.0000 H   0  0  0  0  0  0  0  0  0  0  0  0
   15.8542    5.1753    0.0000 H   0  0  0  0  0  0  0  0  0  0  0  0
   15.3655    5.4575    0.0000 H   0  0  0  0  0  0  0  0  0  0  0  0
   17.3291    4.1748    0.0000 H   0  0  0  0  0  0  0  0  0  0  0  0
   17.3576    5.0713    0.0000 H   0  0  0  0  0  0  0  0  0  0  0  0
   13.3808    6.1845    0.0000 H   0  0  0  0  0  0  0  0  0  0  0  0
   14.4816    6.7071    0.0000 H   0  0  0  0  0  0  0  0  0  0  0  0
  1  2  1  0  0  0  0
  2  3  1  0  0  0  0
  2  4  1  0  0  0  0
  5  4  1  0  0  0  0
  5  6  1  0  0  0  0
  6  7  1  0  0  0  0
  7  8  2  0  0  0  0
  9  7  1  0  0  0  0
  9 10  1  0  0  0  0
 10 11  1  0  0  0  0
 11 12  2  0  0  0  0
 13 11  1  0  0  0  0
 13 14  1  0  0  0  0
 13 15  1  0  0  0  0
 15 16  1  0  0  0  0
 16 17  2  0  0  0  0
 16 18  1  0  0  0  0
 18 19  1  0  0  0  0
 19 20  1  0  0  0  0
 19 21  1  0  0  0  0
 19 22  1  0  0  0  0
  9 23  1  0  0  0  0
 23 24  1  0  0  0  0
 23 25  1  0  0  0  0
  5 26  1  0  0  0  0
 26 27  2  0  0  0  0
 26 28  1  0  0  0  0
 29 28  1  0  0  0  0
 29 30  1  0  0  0  0
 30 31  1  0  0  0  0
 31 32  1  0  0  0  0
 32 33  1  0  0  0  0
 32 34  2  0  0  0  0
 29 35  1  0  0  0  0
 35 36  2  0  0  0  0
  1 37  1  0  0  0  0
  1 38  1  0  0  0  0
  1 39  1  0  0  0  0
  2 40  1  0  0  0  0
  3 41  1  0  0  0  0
  3 42  1  0  0  0  0
  3 43  1  0  0  0  0
  4 44  1  0  0  0  0
  4 45  1  0  0  0  0
  5 46  1  0  0  0  0
  6 47  1  0  0  0  0
  9 48  1  0  0  0  0
 10 49  1  0  0  0  0
 13 50  1  0  0  0  0
 14 51  1  0  0  0  0
 14 52  1  0  0  0  0
 14 53  1  0  0  0  0
 15 54  1  0  0  0  0
 20 55  1  0  0  0  0
 20 56  1  0  0  0  0
 20 57  1  0  0  0  0
 21 58  1  0  0  0  0
 21 59  1  0  0  0  0
 21 60  1  0  0  0  0
 22 61  1  0  0  0  0
 22 62  1  0  0  0  0
 22 63  1  0  0  0  0
 23 64  1  0  0  0  0
 24 65  1  0  0  0  0
 24 66  1  0  0  0  0
 24 67  1  0  0  0  0
 25 68  1  0  0  0  0
 25 69  1  0  0  0  0
 25 70  1  0  0  0  0
 28 71  1  0  0  0  0
 29 72  1  0  0  0  0
 30 73  1  0  0  0  0
 30 74  1  0  0  0  0
 31 75  1  0  0  0  0
 31 76  1  0  0  0  0
 33 77  1  0  0  0  0
 33 78  1  0  0  0  0
 35 79  1  0  0  0  0
 36 80  1  0  0  0  0
M  END
> <Compound_name>
tert-butyl N-[(2S)-1-[[(2S)-1-[[(2S)-1-[[(2S)-5-amino-1-imino-5-oxopentan-2-yl]amino]-4-methyl-1-oxopentan-2-yl]amino]-3-methyl-1-oxobutan-2-yl]amino]-1-oxopropan-2-yl]carbamate

> <Standard Type>
IC50

> <Standard Relation>
=

> <Standard Value>
49000.0

> <Standard Units>
nM

> <Outcome>
Inactive

> <InChIKey>
ULFUAWXYVJGOOG-BRJLIKDPNA-N

> <Molecule ChEMBL ID>


$$$$

  Mrv1817 04132013522D          

 69 73  0  0  0  0            999 V2000
   -1.4133    0.0430    0.0000 O   0  0  0  0  0  0  0  0  0  0  0  0
   -1.4133    0.8680    0.0000 C   0  0  0  0  0  0  0  0  0  0  0  0
   -0.6988    1.2805    0.0000 C   0  0  0  0  0  0  0  0  0  0  0  0
   -0.6988    2.1055    0.0000 C   0  0  0  0  0  0  0  0  0  0  0  0
   -1.4133    2.5180    0.0000 C   0  0  0  0  0  0  0  0  0  0  0  0
   -2.1669    2.1825    0.0000 C   0  0  0  0  0  0  0  0  0  0  0  0
   -2.7190    2.7956    0.0000 N   0  0  0  0  0  0  0  0  0  0  0  0
   -2.3065    3.5101    0.0000 C   0  0  0  0  0  0  0  0  0  0  0  0
   -1.4995    3.3385    0.0000 N   0  0  0  0  0  0  0  0  0  0  0  0
    0.0157    0.8680    0.0000 N   0  0  0  0  0  0  0  0  0  0  0  0
    0.0157    0.0430    0.0000 C   0  0  0  0  0  0  0  0  0  0  0  0
    0.7302   -0.3695    0.0000 C   0  0  0  0  0  0  0  0  0  0  0  0
    1.4446    0.0430    0.0000 C   0  0  0  0  0  0  0  0  0  0  0  0
    2.1591   -0.3695    0.0000 C   0  0  0  0  0  0  0  0  0  0  0  0
    2.8736    0.0430    0.0000 C   0  0  0  0  0  0  0  0  0  0  0  0
    3.5880   -0.3695    0.0000 C   0  0  0  0  0  0  0  0  0  0  0  0
    3.5880   -1.1945    0.0000 C   0  0  0  0  0  0  0  0  0  0  0  0
    2.8736   -1.6070    0.0000 C   0  0  0  0  0  0  0  0  0  0  0  0
    2.1591   -1.1945    0.0000 C   0  0  0  0  0  0  0  0  0  0  0  0
    1.4446   -1.6070    0.0000 C   0  0  0  0  0  0  0  0  0  0  0  0
    0.7302   -1.1945    0.0000 N   0  0  0  0  0  0  0  0  0  0  0  0
    0.0157   -1.6070    0.0000 C   0  0  0  0  0  0  0  0  0  0  0  0
   -0.6988   -1.1945    0.0000 O   0  0  0  0  0  0  0  0  0  0  0  0
    0.0157   -2.4320    0.0000 C   0  0  0  0  0  0  0  0  0  0  0  0
    0.7302   -2.8445    0.0000 C   0  0  0  0  0  0  0  0  0  0  0  0
    0.7302   -3.6695    0.0000 C   0  0  0  0  0  0  0  0  0  0  0  0
    0.0157   -4.0820    0.0000 C   0  0  0  0  0  0  0  0  0  0  0  0
   -0.6988   -3.6695    0.0000 C   0  0  0  0  0  0  0  0  0  0  0  0
   -0.6988   -2.8445    0.0000 C   0  0  0  0  0  0  0  0  0  0  0  0
    0.0157   -4.9070    0.0000 C   0  0  0  0  0  0  0  0  0  0  0  0
    0.7302   -5.3195    0.0000 C   0  0  0  0  0  0  0  0  0  0  0  0
    0.7302   -6.1445    0.0000 C   0  0  0  0  0  0  0  0  0  0  0  0
    0.0157   -6.5570    0.0000 C   0  0  0  0  0  0  0  0  0  0  0  0
   -0.6988   -6.1445    0.0000 C   0  0  0  0  0  0  0  0  0  0  0  0
   -0.6988   -5.3195    0.0000 C   0  0  0  0  0  0  0  0  0  0  0  0
   -2.1277    1.2805    0.0000 H   0  0  0  0  0  0  0  0  0  0  0  0
   -1.4133    1.6930    0.0000 H   0  0  0  0  0  0  0  0  0  0  0  0
    0.1248    2.1535    0.0000 H   0  0  0  0  0  0  0  0  0  0  0  0
   -0.2454    2.7948    0.0000 H   0  0  0  0  0  0  0  0  0  0  0  0
   -2.9305    1.8702    0.0000 H   0  0  0  0  0  0  0  0  0  0  0  0
   -2.6420    4.2637    0.0000 H   0  0  0  0  0  0  0  0  0  0  0  0
   -0.8864    3.8906    0.0000 H   0  0  0  0  0  0  0  0  0  0  0  0
    0.7302    1.2805    0.0000 H   0  0  0  0  0  0  0  0  0  0  0  0
   -0.8079   -0.0049    0.0000 H   0  0  0  0  0  0  0  0  0  0  0  0
   -0.4377   -0.6462    0.0000 H   0  0  0  0  0  0  0  0  0  0  0  0
    0.0157   -0.7820    0.0000 H   0  0  0  0  0  0  0  0  0  0  0  0
    1.8149    0.7803    0.0000 H   0  0  0  0  0  0  0  0  0  0  0  0
    1.0744    0.7803    0.0000 H   0  0  0  0  0  0  0  0  0  0  0  0
    2.8736   -0.7820    0.0000 H   0  0  0  0  0  0  0  0  0  0  0  0
    3.2438    0.7803    0.0000 H   0  0  0  0  0  0  0  0  0  0  0  0
    2.5033    0.7803    0.0000 H   0  0  0  0  0  0  0  0  0  0  0  0
    4.4117   -0.3215    0.0000 H   0  0  0  0  0  0  0  0  0  0  0  0
    4.0414    0.3198    0.0000 H   0  0  0  0  0  0  0  0  0  0  0  0
    4.0414   -1.8837    0.0000 H   0  0  0  0  0  0  0  0  0  0  0  0
    4.4117   -1.2424    0.0000 H   0  0  0  0  0  0  0  0  0  0  0  0
    2.5033   -2.3442    0.0000 H   0  0  0  0  0  0  0  0  0  0  0  0
    3.2438   -2.3442    0.0000 H   0  0  0  0  0  0  0  0  0  0  0  0
    2.1591   -2.0195    0.0000 H   0  0  0  0  0  0  0  0  0  0  0  0
    0.8126   -2.1373    0.0000 H   0  0  0  0  0  0  0  0  0  0  0  0
    1.3014   -2.4194    0.0000 H   0  0  0  0  0  0  0  0  0  0  0  0
    1.4674   -3.2148    0.0000 H   0  0  0  0  0  0  0  0  0  0  0  0
    1.1530   -4.3779    0.0000 H   0  0  0  0  0  0  0  0  0  0  0  0
   -1.4133   -4.0820    0.0000 H   0  0  0  0  0  0  0  0  0  0  0  0
   -1.4133   -2.4320    0.0000 H   0  0  0  0  0  0  0  0  0  0  0  0
    1.4446   -4.9070    0.0000 H   0  0  0  0  0  0  0  0  0  0  0  0
    1.4446   -6.5570    0.0000 H   0  0  0  0  0  0  0  0  0  0  0  0
    0.0157   -7.3820    0.0000 H   0  0  0  0  0  0  0  0  0  0  0  0
   -1.4133   -6.5570    0.0000 H   0  0  0  0  0  0  0  0  0  0  0  0
   -1.4133   -4.9070    0.0000 H   0  0  0  0  0  0  0  0  0  0  0  0
  1  2  2  0  0  0  0
  3  2  1  0  0  0  0
  3  4  1  0  0  0  0
  4  5  1  0  0  0  0
  5  6  4  0  0  0  0
  6  7  4  0  0  0  0
  7  8  4  0  0  0  0
  8  9  4  0  0  0  0
  5  9  4  0  0  0  0
  3 10  1  0  0  0  0
 10 11  1  0  0  0  0
 12 11  1  0  0  0  0
 12 13  1  0  0  0  0
 14 13  1  0  0  0  0
 14 15  1  0  0  0  0
 15 16  1  0  0  0  0
 16 17  1  0  0  0  0
 17 18  1  0  0  0  0
 19 18  1  0  0  0  0
 14 19  1  0  0  0  0
 19 20  1  0  0  0  0
 20 21  1  0  0  0  0
 12 21  1  0  0  0  0
 21 22  1  0  0  0  0
 22 23  2  0  0  0  0
 22 24  1  0  0  0  0
 24 25  4  0  0  0  0
 25 26  4  0  0  0  0
 26 27  4  0  0  0  0
 27 28  4  0  0  0  0
 28 29  4  0  0  0  0
 24 29  4  0  0  0  0
 27 30  1  0  0  0  0
 30 31  4  0  0  0  0
 31 32  4  0  0  0  0
 32 33  4  0  0  0  0
 33 34  4  0  0  0  0
 34 35  4  0  0  0  0
 30 35  4  0  0  0  0
  2 36  1  0  0  0  0
  3 37  1  0  0  0  0
  4 38  1  0  0  0  0
  4 39  1  0  0  0  0
  6 40  1  0  0  0  0
  8 41  1  0  0  0  0
  9 42  1  0  0  0  0
 10 43  1  0  0  0  0
 11 44  1  0  0  0  0
 11 45  1  0  0  0  0
 12 46  1  0  0  0  0
 13 47  1  0  0  0  0
 13 48  1  0  0  0  0
 14 49  1  0  0  0  0
 15 50  1  0  0  0  0
 15 51  1  0  0  0  0
 16 52  1  0  0  0  0
 16 53  1  0  0  0  0
 17 54  1  0  0  0  0
 17 55  1  0  0  0  0
 18 56  1  0  0  0  0
 18 57  1  0  0  0  0
 19 58  1  0  0  0  0
 20 59  1  0  0  0  0
 20 60  1  0  0  0  0
 25 61  1  0  0  0  0
 26 62  1  0  0  0  0
 28 63  1  0  0  0  0
 29 64  1  0  0  0  0
 31 65  1  0  0  0  0
 32 66  1  0  0  0  0
 33 67  1  0  0  0  0
 34 68  1  0  0  0  0
 35 69  1  0  0  0  0
M  END
> <Compound_name>
(2S)-2-[[(3S,4aR,8aS)-2-(4-phenylbenzoyl)-3,4,4a,5,6,7,8,8a-octahydro-1H-isoquinolin-3-yl]methylamino]-3-(1H-imidazol-5-yl)propanal; (2S)-2-[[(3R,4aS,8aR)-2-(4-phenylbenzoyl)-3,4,4a,5,6,7,8,8a-octahydro-1H-isoquinolin-3-yl]methylamino]-3-(1H-imidazol-5-yl)propanal

> <Standard Type>
IC50

> <Standard Relation>
=

> <Standard Value>
174000.0

> <Standard Units>
nM

> <Outcome>
Inactive

> <InChIKey>
VZCULZJNALRGNB-UHFFFAOYNA-N

> <Molecule ChEMBL ID>


$$$$

  Mrv1817 04132013522D          

 80 81  0  0  0  0            999 V2000
    2.9748   -7.5399    0.0000 C   0  0  0  0  0  0  0  0  0  0  0  0
    2.2048   -7.2436    0.0000 C   0  0  0  0  0  0  0  0  0  0  0  0
    1.5632   -7.7622    0.0000 C   0  0  0  0  0  0  0  0  0  0  0  0
    2.0765   -6.4286    0.0000 C   0  0  0  0  0  0  0  0  0  0  0  0
    1.3066   -6.1323    0.0000 N   0  0  0  0  0  0  0  0  0  0  0  0
    0.6650   -6.6509    0.0000 C   0  0  0  0  0  0  0  0  0  0  0  0
    0.7933   -7.4658    0.0000 O   0  0  0  0  0  0  0  0  0  0  0  0
   -0.1050   -6.3545    0.0000 C   0  0  0  0  0  0  0  0  0  0  0  0
   -0.7466   -6.8731    0.0000 N   0  0  0  0  0  0  0  0  0  0  0  0
   -1.5165   -6.5768    0.0000 C   0  0  0  0  0  0  0  0  0  0  0  0
   -2.1581   -7.0954    0.0000 C   0  0  0  0  0  0  0  0  0  0  0  0
   -1.6448   -5.7618    0.0000 O   0  0  0  0  0  0  0  0  0  0  0  0
   -0.2333   -5.5396    0.0000 C   0  0  0  0  0  0  0  0  0  0  0  0
   -1.0032   -5.2432    0.0000 C   0  0  0  0  0  0  0  0  0  0  0  0
    0.4083   -5.0210    0.0000 O   0  0  0  0  0  0  0  0  0  0  0  0
    2.7181   -5.9100    0.0000 C   0  0  0  0  0  0  0  0  0  0  0  0
    2.5898   -5.0950    0.0000 O   0  0  0  0  0  0  0  0  0  0  0  0
    3.4881   -6.2063    0.0000 N   0  0  0  0  0  0  0  0  0  0  0  0
    4.1297   -5.6877    0.0000 C   0  0  0  0  0  0  0  0  0  0  0  0
    4.0014   -4.8728    0.0000 C   0  0  0  0  0  0  0  0  0  0  0  0
    4.6430   -4.3542    0.0000 C   0  0  0  0  0  0  0  0  0  0  0  0
    4.5147   -3.5392    0.0000 C   0  0  0  0  0  0  0  0  0  0  0  0
    5.1563   -3.0206    0.0000 C   0  0  0  0  0  0  0  0  0  0  0  0
    5.9262   -3.3169    0.0000 C   0  0  0  0  0  0  0  0  0  0  0  0
    6.0545   -4.1319    0.0000 C   0  0  0  0  0  0  0  0  0  0  0  0
    5.4129   -4.6505    0.0000 C   0  0  0  0  0  0  0  0  0  0  0  0
    4.8996   -5.9841    0.0000 C   0  0  0  0  0  0  0  0  0  0  0  0
    5.0279   -6.7990    0.0000 O   0  0  0  0  0  0  0  0  0  0  0  0
    5.5412   -5.4655    0.0000 N   0  0  0  0  0  0  0  0  0  0  0  0
    6.3112   -5.7618    0.0000 C   0  0  0  0  0  0  0  0  0  0  0  0
    6.9528   -5.2432    0.0000 C   0  0  0  0  0  0  0  0  0  0  0  0
    7.7227   -5.5396    0.0000 C   0  0  0  0  0  0  0  0  0  0  0  0
    8.4150   -5.0909    0.0000 C   0  0  0  0  0  0  0  0  0  0  0  0
    9.0557   -5.6106    0.0000 N   0  0  0  0  0  0  0  0  0  0  0  0
    8.7594   -6.3806    0.0000 C   0  0  0  0  0  0  0  0  0  0  0  0
    7.9355   -6.3366    0.0000 N   0  0  0  0  0  0  0  0  0  0  0  0
    6.4395   -6.5768    0.0000 C   0  0  0  0  0  0  0  0  0  0  0  0
    5.7979   -7.0954    0.0000 O   0  0  0  0  0  0  0  0  0  0  0  0
    2.6784   -8.3099    0.0000 H   0  0  0  0  0  0  0  0  0  0  0  0
    3.7447   -7.8363    0.0000 H   0  0  0  0  0  0  0  0  0  0  0  0
    3.2711   -6.7700    0.0000 H   0  0  0  0  0  0  0  0  0  0  0  0
    2.3332   -8.0585    0.0000 H   0  0  0  0  0  0  0  0  0  0  0  0
    1.0214   -8.3843    0.0000 H   0  0  0  0  0  0  0  0  0  0  0  0
    1.5481   -8.5870    0.0000 H   0  0  0  0  0  0  0  0  0  0  0  0
    1.4349   -6.9472    0.0000 H   0  0  0  0  0  0  0  0  0  0  0  0
    2.8465   -6.7250    0.0000 H   0  0  0  0  0  0  0  0  0  0  0  0
    1.1783   -5.3173    0.0000 H   0  0  0  0  0  0  0  0  0  0  0  0
    0.0234   -7.1695    0.0000 H   0  0  0  0  0  0  0  0  0  0  0  0
   -1.0429   -7.6431    0.0000 H   0  0  0  0  0  0  0  0  0  0  0  0
   -2.6767   -6.4538    0.0000 H   0  0  0  0  0  0  0  0  0  0  0  0
   -2.7997   -7.6140    0.0000 H   0  0  0  0  0  0  0  0  0  0  0  0
   -1.6395   -7.7370    0.0000 H   0  0  0  0  0  0  0  0  0  0  0  0
   -0.8749   -6.0582    0.0000 H   0  0  0  0  0  0  0  0  0  0  0  0
   -0.3616   -4.7246    0.0000 H   0  0  0  0  0  0  0  0  0  0  0  0
   -1.1315   -4.4283    0.0000 H   0  0  0  0  0  0  0  0  0  0  0  0
   -1.7732   -4.9469    0.0000 H   0  0  0  0  0  0  0  0  0  0  0  0
    0.7047   -4.2510    0.0000 H   0  0  0  0  0  0  0  0  0  0  0  0
    4.1551   -6.6919    0.0000 H   0  0  0  0  0  0  0  0  0  0  0  0
    3.3598   -5.3914    0.0000 H   0  0  0  0  0  0  0  0  0  0  0  0
    3.7335   -4.0925    0.0000 H   0  0  0  0  0  0  0  0  0  0  0  0
    3.2946   -4.4472    0.0000 H   0  0  0  0  0  0  0  0  0  0  0  0
    4.7713   -5.1691    0.0000 H   0  0  0  0  0  0  0  0  0  0  0  0
    4.4036   -2.7217    0.0000 H   0  0  0  0  0  0  0  0  0  0  0  0
    3.7580   -3.2105    0.0000 H   0  0  0  0  0  0  0  0  0  0  0  0
    5.7997   -2.5043    0.0000 H   0  0  0  0  0  0  0  0  0  0  0  0
    5.0337   -2.2048    0.0000 H   0  0  0  0  0  0  0  0  0  0  0  0
    6.6960   -3.6137    0.0000 H   0  0  0  0  0  0  0  0  0  0  0  0
    6.5684   -2.7991    0.0000 H   0  0  0  0  0  0  0  0  0  0  0  0
    6.1828   -4.9469    0.0000 H   0  0  0  0  0  0  0  0  0  0  0  0
    6.8244   -4.4284    0.0000 H   0  0  0  0  0  0  0  0  0  0  0  0
    5.5711   -3.8408    0.0000 H   0  0  0  0  0  0  0  0  0  0  0  0
    5.0136   -3.9286    0.0000 H   0  0  0  0  0  0  0  0  0  0  0  0
    5.6696   -6.2804    0.0000 H   0  0  0  0  0  0  0  0  0  0  0  0
    7.0811   -6.0582    0.0000 H   0  0  0  0  0  0  0  0  0  0  0  0
    7.7331   -4.9753    0.0000 H   0  0  0  0  0  0  0  0  0  0  0  0
    7.3783   -4.5364    0.0000 H   0  0  0  0  0  0  0  0  0  0  0  0
    8.7550   -4.3392    0.0000 H   0  0  0  0  0  0  0  0  0  0  0  0
    9.2081   -7.0729    0.0000 H   0  0  0  0  0  0  0  0  0  0  0  0
    7.7845   -7.1477    0.0000 H   0  0  0  0  0  0  0  0  0  0  0  0
    6.9581   -7.2184    0.0000 H   0  0  0  0  0  0  0  0  0  0  0  0
  1  2  1  0  0  0  0
  2  3  1  0  0  0  0
  4  2  1  0  0  0  0
  4  5  1  0  0  0  0
  5  6  1  0  0  0  0
  6  7  2  0  0  0  0
  8  6  1  0  0  0  0
  8  9  1  0  0  0  0
  9 10  1  0  0  0  0
 10 11  1  0  0  0  0
 10 12  2  0  0  0  0
  8 13  1  0  0  0  0
 13 14  1  0  0  0  0
 13 15  1  0  0  0  0
  4 16  1  0  0  0  0
 16 17  2  0  0  0  0
 16 18  1  0  0  0  0
 19 18  1  0  0  0  0
 19 20  1  0  0  0  0
 20 21  1  0  0  0  0
 21 22  1  0  0  0  0
 22 23  1  0  0  0  0
 23 24  1  0  0  0  0
 24 25  1  0  0  0  0
 25 26  1  0  0  0  0
 21 26  1  0  0  0  0
 19 27  1  0  0  0  0
 27 28  2  0  0  0  0
 27 29  1  0  0  0  0
 30 29  1  0  0  0  0
 30 31  1  0  0  0  0
 31 32  1  0  0  0  0
 32 33  4  0  0  0  0
 33 34  4  0  0  0  0
 34 35  4  0  0  0  0
 35 36  4  0  0  0  0
 32 36  4  0  0  0  0
 30 37  1  0  0  0  0
 37 38  2  0  0  0  0
  1 39  1  0  0  0  0
  1 40  1  0  0  0  0
  1 41  1  0  0  0  0
  2 42  1  0  0  0  0
  3 43  1  0  0  0  0
  3 44  1  0  0  0  0
  3 45  1  0  0  0  0
  4 46  1  0  0  0  0
  5 47  1  0  0  0  0
  8 48  1  0  0  0  0
  9 49  1  0  0  0  0
 11 50  1  0  0  0  0
 11 51  1  0  0  0  0
 11 52  1  0  0  0  0
 13 53  1  0  0  0  0
 14 54  1  0  0  0  0
 14 55  1  0  0  0  0
 14 56  1  0  0  0  0
 15 57  1  0  0  0  0
 18 58  1  0  0  0  0
 19 59  1  0  0  0  0
 20 60  1  0  0  0  0
 20 61  1  0  0  0  0
 21 62  1  0  0  0  0
 22 63  1  0  0  0  0
 22 64  1  0  0  0  0
 23 65  1  0  0  0  0
 23 66  1  0  0  0  0
 24 67  1  0  0  0  0
 24 68  1  0  0  0  0
 25 69  1  0  0  0  0
 25 70  1  0  0  0  0
 26 71  1  0  0  0  0
 26 72  1  0  0  0  0
 29 73  1  0  0  0  0
 30 74  1  0  0  0  0
 31 75  1  0  0  0  0
 31 76  1  0  0  0  0
 33 77  1  0  0  0  0
 35 78  1  0  0  0  0
 36 79  1  0  0  0  0
 37 80  1  0  0  0  0
M  END
> <Compound_name>


> <Standard Type>
IC50

> <Standard Relation>
=

> <Standard Value>
98.0

> <Standard Units>
nM

> <Outcome>
Active

> <InChIKey>
ZECWIGXEKGOONP-UHFFFAOYNA-N

> <Molecule ChEMBL ID>


$$$$

  Mrv1817 04132013512D          

 93 94  0  0  0  0            999 V2000
    1.3822   -0.0082    0.0000 N   0  0  0  0  0  0  0  0  0  0  0  0
    1.3822    0.8168    0.0000 C   0  0  0  0  0  0  0  0  0  0  0  0
    0.6677    1.2293    0.0000 O   0  0  0  0  0  0  0  0  0  0  0  0
    2.0966    1.2293    0.0000 C   0  0  0  0  0  0  0  0  0  0  0  0
    2.5091    0.5148    0.0000 C   0  0  0  0  0  0  0  0  0  0  0  0
    1.6841    1.9438    0.0000 C   0  0  0  0  0  0  0  0  0  0  0  0
    2.8111    1.6418    0.0000 C   0  0  0  0  0  0  0  0  0  0  0  0
    2.0966   -0.4207    0.0000 C   0  0  0  0  0  0  0  0  0  0  0  0
    2.0966   -1.2457    0.0000 C   0  0  0  0  0  0  0  0  0  0  0  0
    1.3822   -1.6582    0.0000 N   0  0  0  0  0  0  0  0  0  0  0  0
    0.6677   -1.2457    0.0000 C   0  0  0  0  0  0  0  0  0  0  0  0
    0.6677   -0.4207    0.0000 O   0  0  0  0  0  0  0  0  0  0  0  0
   -0.0468   -1.6582    0.0000 O   0  0  0  0  0  0  0  0  0  0  0  0
   -0.7612   -1.2457    0.0000 C   0  0  0  0  0  0  0  0  0  0  0  0
   -1.4757   -1.6582    0.0000 C   0  0  0  0  0  0  0  0  0  0  0  0
   -1.4757   -2.4832    0.0000 C   0  0  0  0  0  0  0  0  0  0  0  0
   -2.1902   -2.8957    0.0000 C   0  0  0  0  0  0  0  0  0  0  0  0
   -2.9047   -2.4832    0.0000 C   0  0  0  0  0  0  0  0  0  0  0  0
   -2.9047   -1.6582    0.0000 C   0  0  0  0  0  0  0  0  0  0  0  0
   -2.1902   -1.2457    0.0000 C   0  0  0  0  0  0  0  0  0  0  0  0
    2.8111   -1.6582    0.0000 C   0  0  0  0  0  0  0  0  0  0  0  0
    2.8111   -2.4832    0.0000 O   0  0  0  0  0  0  0  0  0  0  0  0
    3.5256   -1.2457    0.0000 N   0  0  0  0  0  0  0  0  0  0  0  0
    4.2401   -1.6582    0.0000 C   0  0  0  0  0  0  0  0  0  0  0  0
    4.9545   -1.2457    0.0000 C   0  0  0  0  0  0  0  0  0  0  0  0
    4.9545   -0.4207    0.0000 O   0  0  0  0  0  0  0  0  0  0  0  0
    5.6690   -1.6582    0.0000 N   0  0  0  0  0  0  0  0  0  0  0  0
    6.3835   -1.2457    0.0000 C   0  0  0  0  0  0  0  0  0  0  0  0
    7.0979   -1.6582    0.0000 C   0  0  0  0  0  0  0  0  0  0  0  0
    7.8124   -1.2457    0.0000 C   0  0  0  0  0  0  0  0  0  0  0  0
    8.5269   -1.6582    0.0000 C   0  0  0  0  0  0  0  0  0  0  0  0
    9.2414   -1.2457    0.0000 O   0  0  0  0  0  0  0  0  0  0  0  0
    8.5269   -2.4832    0.0000 C   0  0  0  0  0  0  0  0  0  0  0  0
    6.3835   -0.4207    0.0000 C   0  0  0  0  0  0  0  0  0  0  0  0
    7.0979   -0.0082    0.0000 C   0  0  0  0  0  0  0  0  0  0  0  0
    7.1842    0.8123    0.0000 C   0  0  0  0  0  0  0  0  0  0  0  0
    6.5711    1.3643    0.0000 O   0  0  0  0  0  0  0  0  0  0  0  0
    7.9911    0.9838    0.0000 N   0  0  0  0  0  0  0  0  0  0  0  0
    8.4036    0.2693    0.0000 C   0  0  0  0  0  0  0  0  0  0  0  0
    7.8516   -0.3438    0.0000 C   0  0  0  0  0  0  0  0  0  0  0  0
    4.2401   -2.4832    0.0000 C   0  0  0  0  0  0  0  0  0  0  0  0
    4.9545   -2.8957    0.0000 C   0  0  0  0  0  0  0  0  0  0  0  0
    5.6690   -2.4832    0.0000 C   0  0  0  0  0  0  0  0  0  0  0  0
    4.9545   -3.7207    0.0000 C   0  0  0  0  0  0  0  0  0  0  0  0
    0.6677    0.4043    0.0000 H   0  0  0  0  0  0  0  0  0  0  0  0
    1.7947    0.1023    0.0000 H   0  0  0  0  0  0  0  0  0  0  0  0
    2.9216   -0.1997    0.0000 H   0  0  0  0  0  0  0  0  0  0  0  0
    3.2236    0.9273    0.0000 H   0  0  0  0  0  0  0  0  0  0  0  0
    2.3986    2.3563    0.0000 H   0  0  0  0  0  0  0  0  0  0  0  0
    1.2716    2.6582    0.0000 H   0  0  0  0  0  0  0  0  0  0  0  0
    0.9697    1.5313    0.0000 H   0  0  0  0  0  0  0  0  0  0  0  0
    3.6080    1.4283    0.0000 H   0  0  0  0  0  0  0  0  0  0  0  0
    3.5256    2.0543    0.0000 H   0  0  0  0  0  0  0  0  0  0  0  0
    3.0246    2.4387    0.0000 H   0  0  0  0  0  0  0  0  0  0  0  0
    2.4124    0.3415    0.0000 H   0  0  0  0  0  0  0  0  0  0  0  0
    1.3822   -0.8332    0.0000 H   0  0  0  0  0  0  0  0  0  0  0  0
    2.8111   -0.8332    0.0000 H   0  0  0  0  0  0  0  0  0  0  0  0
    1.3822   -2.4832    0.0000 H   0  0  0  0  0  0  0  0  0  0  0  0
   -0.3910   -0.5085    0.0000 H   0  0  0  0  0  0  0  0  0  0  0  0
   -1.1315   -0.5085    0.0000 H   0  0  0  0  0  0  0  0  0  0  0  0
   -0.7612   -2.8957    0.0000 H   0  0  0  0  0  0  0  0  0  0  0  0
   -2.1902   -3.7207    0.0000 H   0  0  0  0  0  0  0  0  0  0  0  0
   -3.6191   -2.8957    0.0000 H   0  0  0  0  0  0  0  0  0  0  0  0
   -3.6191   -1.2457    0.0000 H   0  0  0  0  0  0  0  0  0  0  0  0
   -2.1902   -0.4207    0.0000 H   0  0  0  0  0  0  0  0  0  0  0  0
    3.9381   -0.5312    0.0000 H   0  0  0  0  0  0  0  0  0  0  0  0
    4.2401   -0.8332    0.0000 H   0  0  0  0  0  0  0  0  0  0  0  0
    4.9545   -2.0707    0.0000 H   0  0  0  0  0  0  0  0  0  0  0  0
    6.3835   -2.0707    0.0000 H   0  0  0  0  0  0  0  0  0  0  0  0
    7.2412   -2.4707    0.0000 H   0  0  0  0  0  0  0  0  0  0  0  0
    7.7299   -2.1885    0.0000 H   0  0  0  0  0  0  0  0  0  0  0  0
    7.1071   -0.8178    0.0000 H   0  0  0  0  0  0  0  0  0  0  0  0
    8.5357   -0.8488    0.0000 H   0  0  0  0  0  0  0  0  0  0  0  0
    8.0221   -3.1358    0.0000 H   0  0  0  0  0  0  0  0  0  0  0  0
    8.9983   -3.1602    0.0000 H   0  0  0  0  0  0  0  0  0  0  0  0
    9.3140   -2.2361    0.0000 H   0  0  0  0  0  0  0  0  0  0  0  0
    5.9301    0.2686    0.0000 H   0  0  0  0  0  0  0  0  0  0  0  0
    5.5599   -0.3727    0.0000 H   0  0  0  0  0  0  0  0  0  0  0  0
    6.4060    0.4411    0.0000 H   0  0  0  0  0  0  0  0  0  0  0  0
    8.3267    1.7375    0.0000 H   0  0  0  0  0  0  0  0  0  0  0  0
    9.0876   -0.1920    0.0000 H   0  0  0  0  0  0  0  0  0  0  0  0
    9.1686    0.5784    0.0000 H   0  0  0  0  0  0  0  0  0  0  0  0
    7.6801    0.4632    0.0000 H   0  0  0  0  0  0  0  0  0  0  0  0
    8.6724   -0.2607    0.0000 H   0  0  0  0  0  0  0  0  0  0  0  0
    3.4164   -2.5312    0.0000 H   0  0  0  0  0  0  0  0  0  0  0  0
    3.7867   -3.1725    0.0000 H   0  0  0  0  0  0  0  0  0  0  0  0
    5.6690   -3.3082    0.0000 H   0  0  0  0  0  0  0  0  0  0  0  0
    6.1993   -3.1152    0.0000 H   0  0  0  0  0  0  0  0  0  0  0  0
    6.4815   -2.6265    0.0000 H   0  0  0  0  0  0  0  0  0  0  0  0
    6.0815   -1.7687    0.0000 H   0  0  0  0  0  0  0  0  0  0  0  0
    4.1576   -3.5072    0.0000 H   0  0  0  0  0  0  0  0  0  0  0  0
    4.5420   -4.4352    0.0000 H   0  0  0  0  0  0  0  0  0  0  0  0
    5.5379   -4.3041    0.0000 H   0  0  0  0  0  0  0  0  0  0  0  0
  1  2  1  0  0  0  0
  2  3  2  0  0  0  0
  2  4  1  0  0  0  0
  4  5  1  0  0  0  0
  4  6  1  0  0  0  0
  4  7  1  0  0  0  0
  1  8  1  0  0  0  0
  8  9  1  0  0  0  0
  9 10  1  0  0  0  0
 10 11  1  0  0  0  0
 11 12  2  0  0  0  0
 11 13  1  0  0  0  0
 13 14  1  0  0  0  0
 14 15  1  0  0  0  0
 15 16  4  0  0  0  0
 16 17  4  0  0  0  0
 17 18  4  0  0  0  0
 18 19  4  0  0  0  0
 19 20  4  0  0  0  0
 15 20  4  0  0  0  0
  9 21  1  0  0  0  0
 21 22  2  0  0  0  0
 21 23  1  0  0  0  0
 23 24  1  0  0  0  0
 24 25  1  0  0  0  0
 25 26  2  0  0  0  0
 25 27  1  0  0  0  0
 27 28  1  0  0  0  0
 28 29  1  0  0  0  0
 29 30  1  0  0  0  0
 30 31  1  0  0  0  0
 31 32  2  0  0  0  0
 31 33  1  0  0  0  0
 28 34  1  0  0  0  0
 34 35  1  0  0  0  0
 35 36  1  0  0  0  0
 36 37  2  0  0  0  0
 36 38  1  0  0  0  0
 38 39  1  0  0  0  0
 39 40  1  0  0  0  0
 35 40  1  0  0  0  0
 24 41  1  0  0  0  0
 41 42  1  0  0  0  0
 42 43  1  0  0  0  0
 42 44  1  0  0  0  0
  1 45  1  0  0  0  0
  5 46  1  0  0  0  0
  5 47  1  0  0  0  0
  5 48  1  0  0  0  0
  6 49  1  0  0  0  0
  6 50  1  0  0  0  0
  6 51  1  0  0  0  0
  7 52  1  0  0  0  0
  7 53  1  0  0  0  0
  7 54  1  0  0  0  0
  8 55  1  0  0  0  0
  8 56  1  0  0  0  0
  9 57  1  0  0  0  0
 10 58  1  0  0  0  0
 14 59  1  0  0  0  0
 14 60  1  0  0  0  0
 16 61  1  0  0  0  0
 17 62  1  0  0  0  0
 18 63  1  0  0  0  0
 19 64  1  0  0  0  0
 20 65  1  0  0  0  0
 23 66  1  0  0  0  0
 24 67  1  0  0  0  0
 27 68  1  0  0  0  0
 28 69  1  0  0  0  0
 29 70  1  0  0  0  0
 29 71  1  0  0  0  0
 30 72  1  0  0  0  0
 30 73  1  0  0  0  0
 33 74  1  0  0  0  0
 33 75  1  0  0  0  0
 33 76  1  0  0  0  0
 34 77  1  0  0  0  0
 34 78  1  0  0  0  0
 35 79  1  0  0  0  0
 38 80  1  0  0  0  0
 39 81  1  0  0  0  0
 39 82  1  0  0  0  0
 40 83  1  0  0  0  0
 40 84  1  0  0  0  0
 41 85  1  0  0  0  0
 41 86  1  0  0  0  0
 42 87  1  0  0  0  0
 43 88  1  0  0  0  0
 43 89  1  0  0  0  0
 43 90  1  0  0  0  0
 44 91  1  0  0  0  0
 44 92  1  0  0  0  0
 44 93  1  0  0  0  0
M  END
> <Compound_name>
benzyl N-[(2S)-3-(2,2-dimethylpropanoylamino)-1-[[(2S)-4-methyl-1-oxo-1-[[(2R)-5-oxo-1-[(3S)-2-oxopyrrolidin-3-yl]hexan-2-yl]amino]pentan-2-yl]amino]-1-oxopropan-2-yl]carbamate

> <Standard Type>
Ki

> <Standard Relation>
=

> <Standard Value>
38.0

> <Standard Units>
nM

> <Outcome>
Active

> <InChIKey>
IEQRDAZPCPYZAJ-UHFFFAOYNA-N

> <Molecule ChEMBL ID>


$$$$

  Mrv1817 04132013512D          

 97 99  0  0  0  0            999 V2000
    2.8224   -1.6499    0.0000 N   0  0  0  0  0  0  0  0  0  0  0  0
    2.1079   -2.0624    0.0000 C   0  0  0  0  0  0  0  0  0  0  0  0
    2.1079   -2.8874    0.0000 O   0  0  0  0  0  0  0  0  0  0  0  0
    1.3935   -1.6499    0.0000 O   0  0  0  0  0  0  0  0  0  0  0  0
    0.6790   -2.0624    0.0000 C   0  0  0  0  0  0  0  0  0  0  0  0
   -0.0355   -1.6499    0.0000 C   0  0  0  0  0  0  0  0  0  0  0  0
   -0.7499   -2.0624    0.0000 C   0  0  0  0  0  0  0  0  0  0  0  0
   -1.4644   -1.6499    0.0000 C   0  0  0  0  0  0  0  0  0  0  0  0
   -1.4644   -0.8249    0.0000 C   0  0  0  0  0  0  0  0  0  0  0  0
   -0.7499   -0.4124    0.0000 C   0  0  0  0  0  0  0  0  0  0  0  0
   -0.0355   -0.8249    0.0000 C   0  0  0  0  0  0  0  0  0  0  0  0
    3.5369   -2.0624    0.0000 C   0  0  0  0  0  0  0  0  0  0  0  0
    4.2514   -1.6499    0.0000 C   0  0  0  0  0  0  0  0  0  0  0  0
    4.2514   -0.8249    0.0000 O   0  0  0  0  0  0  0  0  0  0  0  0
    4.9658   -2.0624    0.0000 N   0  0  0  0  0  0  0  0  0  0  0  0
    5.6803   -1.6499    0.0000 C   0  0  0  0  0  0  0  0  0  0  0  0
    6.3948   -2.0624    0.0000 C   0  0  0  0  0  0  0  0  0  0  0  0
    6.3948   -2.8874    0.0000 O   0  0  0  0  0  0  0  0  0  0  0  0
    7.1092   -1.6499    0.0000 N   0  0  0  0  0  0  0  0  0  0  0  0
    7.8237   -2.0624    0.0000 C   0  0  0  0  0  0  0  0  0  0  0  0
    8.5382   -1.6499    0.0000 C   0  0  0  0  0  0  0  0  0  0  0  0
    9.2527   -2.0624    0.0000 C   0  0  0  0  0  0  0  0  0  0  0  0
    9.9671   -1.6499    0.0000 C   0  0  0  0  0  0  0  0  0  0  0  0
    9.9671   -0.8249    0.0000 O   0  0  0  0  0  0  0  0  0  0  0  0
   10.6816   -2.0624    0.0000 C   0  0  0  0  0  0  0  0  0  0  0  0
   11.5066   -2.0624    0.0000 C   0  0  0  0  0  0  0  0  0  0  0  0
   11.0941   -2.7768    0.0000 C   0  0  0  0  0  0  0  0  0  0  0  0
    7.8237   -2.8874    0.0000 C   0  0  0  0  0  0  0  0  0  0  0  0
    8.5382   -3.2999    0.0000 C   0  0  0  0  0  0  0  0  0  0  0  0
    8.6244   -4.1204    0.0000 C   0  0  0  0  0  0  0  0  0  0  0  0
    8.0113   -4.6724    0.0000 O   0  0  0  0  0  0  0  0  0  0  0  0
    9.4314   -4.2919    0.0000 N   0  0  0  0  0  0  0  0  0  0  0  0
    9.8439   -3.5774    0.0000 C   0  0  0  0  0  0  0  0  0  0  0  0
    9.2919   -2.9643    0.0000 C   0  0  0  0  0  0  0  0  0  0  0  0
    5.6803   -0.8249    0.0000 C   0  0  0  0  0  0  0  0  0  0  0  0
    6.3948   -0.4124    0.0000 C   0  0  0  0  0  0  0  0  0  0  0  0
    6.3948    0.4126    0.0000 C   0  0  0  0  0  0  0  0  0  0  0  0
    7.1092   -0.8249    0.0000 C   0  0  0  0  0  0  0  0  0  0  0  0
    3.5369   -2.8874    0.0000 C   0  0  0  0  0  0  0  0  0  0  0  0
    2.8224   -3.2999    0.0000 O   0  0  0  0  0  0  0  0  0  0  0  0
    2.8224   -4.1249    0.0000 C   0  0  0  0  0  0  0  0  0  0  0  0
    1.9974   -4.1249    0.0000 C   0  0  0  0  0  0  0  0  0  0  0  0
    3.6474   -4.1249    0.0000 C   0  0  0  0  0  0  0  0  0  0  0  0
    2.8224   -4.9499    0.0000 C   0  0  0  0  0  0  0  0  0  0  0  0
    4.2514   -3.2999    0.0000 C   0  0  0  0  0  0  0  0  0  0  0  0
    2.8224   -0.8249    0.0000 H   0  0  0  0  0  0  0  0  0  0  0  0
    0.3087   -2.7996    0.0000 H   0  0  0  0  0  0  0  0  0  0  0  0
    1.0493   -2.7996    0.0000 H   0  0  0  0  0  0  0  0  0  0  0  0
   -0.7499   -2.8874    0.0000 H   0  0  0  0  0  0  0  0  0  0  0  0
   -2.1789   -2.0624    0.0000 H   0  0  0  0  0  0  0  0  0  0  0  0
   -2.1789   -0.4124    0.0000 H   0  0  0  0  0  0  0  0  0  0  0  0
   -0.7499    0.4126    0.0000 H   0  0  0  0  0  0  0  0  0  0  0  0
    0.6790   -0.4124    0.0000 H   0  0  0  0  0  0  0  0  0  0  0  0
    3.5369   -1.2374    0.0000 H   0  0  0  0  0  0  0  0  0  0  0  0
    4.9658   -2.8874    0.0000 H   0  0  0  0  0  0  0  0  0  0  0  0
    5.6803   -2.4749    0.0000 H   0  0  0  0  0  0  0  0  0  0  0  0
    6.3948   -1.2374    0.0000 H   0  0  0  0  0  0  0  0  0  0  0  0
    7.8237   -1.2374    0.0000 H   0  0  0  0  0  0  0  0  0  0  0  0
    9.1702   -1.1196    0.0000 H   0  0  0  0  0  0  0  0  0  0  0  0
    8.6814   -0.8374    0.0000 H   0  0  0  0  0  0  0  0  0  0  0  0
    8.5473   -2.4903    0.0000 H   0  0  0  0  0  0  0  0  0  0  0  0
    9.9759   -2.4593    0.0000 H   0  0  0  0  0  0  0  0  0  0  0  0
   10.8951   -1.2655    0.0000 H   0  0  0  0  0  0  0  0  0  0  0  0
   12.3302   -2.1103    0.0000 H   0  0  0  0  0  0  0  0  0  0  0  0
   11.8769   -1.3251    0.0000 H   0  0  0  0  0  0  0  0  0  0  0  0
   10.6408   -3.4661    0.0000 H   0  0  0  0  0  0  0  0  0  0  0  0
   11.5474   -3.4661    0.0000 H   0  0  0  0  0  0  0  0  0  0  0  0
    7.0001   -2.9353    0.0000 H   0  0  0  0  0  0  0  0  0  0  0  0
    7.3704   -3.5767    0.0000 H   0  0  0  0  0  0  0  0  0  0  0  0
    7.8463   -3.7492    0.0000 H   0  0  0  0  0  0  0  0  0  0  0  0
    9.7669   -5.0456    0.0000 H   0  0  0  0  0  0  0  0  0  0  0  0
   10.1264   -2.8023    0.0000 H   0  0  0  0  0  0  0  0  0  0  0  0
   10.3049   -4.2616    0.0000 H   0  0  0  0  0  0  0  0  0  0  0  0
    8.8794   -3.6788    0.0000 H   0  0  0  0  0  0  0  0  0  0  0  0
    9.3781   -3.7848    0.0000 H   0  0  0  0  0  0  0  0  0  0  0  0
    5.2270   -0.1356    0.0000 H   0  0  0  0  0  0  0  0  0  0  0  0
    4.8567   -0.7769    0.0000 H   0  0  0  0  0  0  0  0  0  0  0  0
    5.6803    0.0001    0.0000 H   0  0  0  0  0  0  0  0  0  0  0  0
    7.1917    0.1991    0.0000 H   0  0  0  0  0  0  0  0  0  0  0  0
    6.8073    1.1271    0.0000 H   0  0  0  0  0  0  0  0  0  0  0  0
    5.8114    0.9960    0.0000 H   0  0  0  0  0  0  0  0  0  0  0  0
    7.9061   -0.6114    0.0000 H   0  0  0  0  0  0  0  0  0  0  0  0
    7.5217   -0.1104    0.0000 H   0  0  0  0  0  0  0  0  0  0  0  0
    6.8957   -0.0280    0.0000 H   0  0  0  0  0  0  0  0  0  0  0  0
    2.8224   -2.4749    0.0000 H   0  0  0  0  0  0  0  0  0  0  0  0
    1.9974   -3.2999    0.0000 H   0  0  0  0  0  0  0  0  0  0  0  0
    1.1724   -4.1249    0.0000 H   0  0  0  0  0  0  0  0  0  0  0  0
    1.9974   -4.9499    0.0000 H   0  0  0  0  0  0  0  0  0  0  0  0
    3.6474   -4.9499    0.0000 H   0  0  0  0  0  0  0  0  0  0  0  0
    4.4724   -4.1249    0.0000 H   0  0  0  0  0  0  0  0  0  0  0  0
    3.6474   -3.2999    0.0000 H   0  0  0  0  0  0  0  0  0  0  0  0
    2.2391   -5.5332    0.0000 H   0  0  0  0  0  0  0  0  0  0  0  0
    2.8224   -5.7749    0.0000 H   0  0  0  0  0  0  0  0  0  0  0  0
    3.4058   -5.5332    0.0000 H   0  0  0  0  0  0  0  0  0  0  0  0
    5.0136   -3.6156    0.0000 H   0  0  0  0  0  0  0  0  0  0  0  0
    4.2514   -2.4749    0.0000 H   0  0  0  0  0  0  0  0  0  0  0  0
    3.7491   -3.9544    0.0000 H   0  0  0  0  0  0  0  0  0  0  0  0
  1  2  1  0  0  0  0
  2  3  2  0  0  0  0
  2  4  1  0  0  0  0
  4  5  1  0  0  0  0
  5  6  1  0  0  0  0
  6  7  4  0  0  0  0
  7  8  4  0  0  0  0
  8  9  4  0  0  0  0
  9 10  4  0  0  0  0
 10 11  4  0  0  0  0
  6 11  4  0  0  0  0
  1 12  1  0  0  0  0
 12 13  1  0  0  0  0
 13 14  2  0  0  0  0
 13 15  1  0  0  0  0
 15 16  1  0  0  0  0
 16 17  1  0  0  0  0
 17 18  2  0  0  0  0
 17 19  1  0  0  0  0
 19 20  1  0  0  0  0
 20 21  1  0  0  0  0
 21 22  1  0  0  0  0
 22 23  1  0  0  0  0
 23 24  2  0  0  0  0
 23 25  1  0  0  0  0
 25 26  1  0  0  0  0
 26 27  1  0  0  0  0
 25 27  1  0  0  0  0
 20 28  1  0  0  0  0
 28 29  1  0  0  0  0
 29 30  1  0  0  0  0
 30 31  2  0  0  0  0
 30 32  1  0  0  0  0
 32 33  1  0  0  0  0
 33 34  1  0  0  0  0
 29 34  1  0  0  0  0
 16 35  1  0  0  0  0
 35 36  1  0  0  0  0
 36 37  1  0  0  0  0
 36 38  1  0  0  0  0
 12 39  1  0  0  0  0
 39 40  1  0  0  0  0
 40 41  1  0  0  0  0
 41 42  1  0  0  0  0
 41 43  1  0  0  0  0
 41 44  1  0  0  0  0
 39 45  1  0  0  0  0
  1 46  1  0  0  0  0
  5 47  1  0  0  0  0
  5 48  1  0  0  0  0
  7 49  1  0  0  0  0
  8 50  1  0  0  0  0
  9 51  1  0  0  0  0
 10 52  1  0  0  0  0
 11 53  1  0  0  0  0
 12 54  1  0  0  0  0
 15 55  1  0  0  0  0
 16 56  1  0  0  0  0
 19 57  1  0  0  0  0
 20 58  1  0  0  0  0
 21 59  1  0  0  0  0
 21 60  1  0  0  0  0
 22 61  1  0  0  0  0
 22 62  1  0  0  0  0
 25 63  1  0  0  0  0
 26 64  1  0  0  0  0
 26 65  1  0  0  0  0
 27 66  1  0  0  0  0
 27 67  1  0  0  0  0
 28 68  1  0  0  0  0
 28 69  1  0  0  0  0
 29 70  1  0  0  0  0
 32 71  1  0  0  0  0
 33 72  1  0  0  0  0
 33 73  1  0  0  0  0
 34 74  1  0  0  0  0
 34 75  1  0  0  0  0
 35 76  1  0  0  0  0
 35 77  1  0  0  0  0
 36 78  1  0  0  0  0
 37 79  1  0  0  0  0
 37 80  1  0  0  0  0
 37 81  1  0  0  0  0
 38 82  1  0  0  0  0
 38 83  1  0  0  0  0
 38 84  1  0  0  0  0
 39 85  1  0  0  0  0
 42 86  1  0  0  0  0
 42 87  1  0  0  0  0
 42 88  1  0  0  0  0
 43 89  1  0  0  0  0
 43 90  1  0  0  0  0
 43 91  1  0  0  0  0
 44 92  1  0  0  0  0
 44 93  1  0  0  0  0
 44 94  1  0  0  0  0
 45 95  1  0  0  0  0
 45 96  1  0  0  0  0
 45 97  1  0  0  0  0
M  END
> <Compound_name>
benzyl N-[(2S,3R)-1-[[(2S)-1-[[(2R)-5-cyclopropyl-5-oxo-1-[(3S)-2-oxopyrrolidin-3-yl]pentan-2-yl]amino]-4-methyl-1-oxopentan-2-yl]amino]-3-[(2-methylpropan-2-yl)oxy]-1-oxobutan-2-yl]carbamate

> <Standard Type>
Ki

> <Standard Relation>
=

> <Standard Value>
99.0

> <Standard Units>
nM

> <Outcome>
Active

> <InChIKey>
QIMPWBPEAHOISN-UHFFFAOYNA-N

> <Molecule ChEMBL ID>


$$$$

  Mrv1817 04132013512D          

 23 23  0  0  0  0            999 V2000
   -0.0000    2.4750    0.0000 O   0  0  0  0  0  0  0  0  0  0  0  0
    0.7145    2.0625    0.0000 C   0  0  0  0  0  0  0  0  0  0  0  0
    1.4289    2.4750    0.0000 O   0  0  0  0  0  0  0  0  0  0  0  0
    0.7145    1.2375    0.0000 C   0  0  0  0  0  0  0  0  0  0  0  0
    1.4289    0.8250    0.0000 C   0  0  0  0  0  0  0  0  0  0  0  0
    1.4289   -0.0000    0.0000 C   0  0  0  0  0  0  0  0  0  0  0  0
    0.7145   -0.4125    0.0000 C   0  0  0  0  0  0  0  0  0  0  0  0
   -0.0000   -0.0000    0.0000 C   0  0  0  0  0  0  0  0  0  0  0  0
   -0.0000    0.8250    0.0000 C   0  0  0  0  0  0  0  0  0  0  0  0
    0.7145   -1.2375    0.0000 N   0  0  0  0  0  0  0  0  0  0  0  0
    1.4289   -1.6500    0.0000 C   0  0  0  0  0  0  0  0  0  0  0  0
   -0.0000   -1.6500    0.0000 C   0  0  0  0  0  0  0  0  0  0  0  0
   -0.0000    3.3000    0.0000 H   0  0  0  0  0  0  0  0  0  0  0  0
    2.1434    1.2375    0.0000 H   0  0  0  0  0  0  0  0  0  0  0  0
    2.1434   -0.4125    0.0000 H   0  0  0  0  0  0  0  0  0  0  0  0
   -0.7145   -0.4125    0.0000 H   0  0  0  0  0  0  0  0  0  0  0  0
   -0.7145    1.2375    0.0000 H   0  0  0  0  0  0  0  0  0  0  0  0
    1.0164   -2.3645    0.0000 H   0  0  0  0  0  0  0  0  0  0  0  0
    2.1434   -2.0625    0.0000 H   0  0  0  0  0  0  0  0  0  0  0  0
    1.8414   -0.9355    0.0000 H   0  0  0  0  0  0  0  0  0  0  0  0
   -0.4125   -0.9355    0.0000 H   0  0  0  0  0  0  0  0  0  0  0  0
   -0.7145   -2.0625    0.0000 H   0  0  0  0  0  0  0  0  0  0  0  0
    0.4125   -2.3645    0.0000 H   0  0  0  0  0  0  0  0  0  0  0  0
  1  2  1  0  0  0  0
  2  3  2  0  0  0  0
  2  4  1  0  0  0  0
  4  5  4  0  0  0  0
  5  6  4  0  0  0  0
  6  7  4  0  0  0  0
  7  8  4  0  0  0  0
  8  9  4  0  0  0  0
  4  9  4  0  0  0  0
  7 10  1  0  0  0  0
 10 11  1  0  0  0  0
 10 12  1  0  0  0  0
  1 13  1  0  0  0  0
  5 14  1  0  0  0  0
  6 15  1  0  0  0  0
  8 16  1  0  0  0  0
  9 17  1  0  0  0  0
 11 18  1  0  0  0  0
 11 19  1  0  0  0  0
 11 20  1  0  0  0  0
 12 21  1  0  0  0  0
 12 22  1  0  0  0  0
 12 23  1  0  0  0  0
M  END
> <Compound_name>
4-(dimethylamino)benzoic acid

> <Standard Type>
Ki

> <Standard Relation>
=

> <Standard Value>
1380.0

> <Standard Units>
nM

> <Outcome>
Active

> <InChIKey>
YDIYEOMDOWUDTJ-UHFFFAOYSA-N

> <Molecule ChEMBL ID>


$$$$

  Mrv1817 04132013512D          

 32 34  0  0  0  0            999 V2000
    3.2572    1.2098    0.0000 C   0  0  0  0  0  0  0  0  0  0  0  0
    3.9716    0.7973    0.0000 C   0  0  0  0  0  0  0  0  0  0  0  0
    3.9716   -0.0277    0.0000 C   0  0  0  0  0  0  0  0  0  0  0  0
    4.6861   -0.4402    0.0000 C   0  0  0  0  0  0  0  0  0  0  0  0
    5.4006   -0.8527    0.0000 N   0  0  0  0  0  0  0  0  0  0  0  0
    3.2572   -0.4402    0.0000 C   0  0  0  0  0  0  0  0  0  0  0  0
    2.5427   -0.0277    0.0000 C   0  0  0  0  0  0  0  0  0  0  0  0
    1.7581   -0.2827    0.0000 C   0  0  0  0  0  0  0  0  0  0  0  0
    1.5031   -1.0673    0.0000 O   0  0  0  0  0  0  0  0  0  0  0  0
    1.2731    0.3848    0.0000 C   0  0  0  0  0  0  0  0  0  0  0  0
    0.4481    0.3848    0.0000 O   0  0  0  0  0  0  0  0  0  0  0  0
    1.7581    1.0522    0.0000 N   0  0  0  0  0  0  0  0  0  0  0  0
    2.5427    0.7973    0.0000 C   0  0  0  0  0  0  0  0  0  0  0  0
    1.5031    1.8368    0.0000 C   0  0  0  0  0  0  0  0  0  0  0  0
    2.0552    2.4499    0.0000 C   0  0  0  0  0  0  0  0  0  0  0  0
    1.8836    3.2569    0.0000 C   0  0  0  0  0  0  0  0  0  0  0  0
    2.5981    3.6694    0.0000 N   0  0  0  0  0  0  0  0  0  0  0  0
    3.2112    3.1174    0.0000 O   0  0  0  0  0  0  0  0  0  0  0  0
    2.8756    2.3637    0.0000 C   0  0  0  0  0  0  0  0  0  0  0  0
    3.2881    1.6492    0.0000 C   0  0  0  0  0  0  0  0  0  0  0  0
    1.1300    3.5925    0.0000 C   0  0  0  0  0  0  0  0  0  0  0  0
    2.5576    1.6472    0.0000 H   0  0  0  0  0  0  0  0  0  0  0  0
    4.6861    1.2098    0.0000 H   0  0  0  0  0  0  0  0  0  0  0  0
    3.2572   -1.2652    0.0000 H   0  0  0  0  0  0  0  0  0  0  0  0
    0.8590    2.3523    0.0000 H   0  0  0  0  0  0  0  0  0  0  0  0
    0.7050    1.6280    0.0000 H   0  0  0  0  0  0  0  0  0  0  0  0
    3.9152    1.1132    0.0000 H   0  0  0  0  0  0  0  0  0  0  0  0
    4.0920    1.8346    0.0000 H   0  0  0  0  0  0  0  0  0  0  0  0
    3.6172    2.4058    0.0000 H   0  0  0  0  0  0  0  0  0  0  0  0
    1.4655    4.3461    0.0000 H   0  0  0  0  0  0  0  0  0  0  0  0
    0.3763    3.9280    0.0000 H   0  0  0  0  0  0  0  0  0  0  0  0
    0.7944    2.8388    0.0000 H   0  0  0  0  0  0  0  0  0  0  0  0
  1  2  4  0  0  0  0
  2  3  4  0  0  0  0
  3  4  1  0  0  0  0
  4  5  3  0  0  0  0
  3  6  4  0  0  0  0
  6  7  4  0  0  0  0
  7  8  1  0  0  0  0
  8  9  2  0  0  0  0
  8 10  1  0  0  0  0
 10 11  2  0  0  0  0
 10 12  1  0  0  0  0
 12 13  1  0  0  0  0
  1 13  4  0  0  0  0
  7 13  4  0  0  0  0
 12 14  1  0  0  0  0
 14 15  1  0  0  0  0
 15 16  4  0  0  0  0
 16 17  4  0  0  0  0
 17 18  4  0  0  0  0
 18 19  4  0  0  0  0
 15 19  4  0  0  0  0
 19 20  1  0  0  0  0
 16 21  1  0  0  0  0
  1 22  1  0  0  0  0
  2 23  1  0  0  0  0
  6 24  1  0  0  0  0
 14 25  1  0  0  0  0
 14 26  1  0  0  0  0
 20 27  1  0  0  0  0
 20 28  1  0  0  0  0
 20 29  1  0  0  0  0
 21 30  1  0  0  0  0
 21 31  1  0  0  0  0
 21 32  1  0  0  0  0
M  END
> <Compound_name>
4b

> <Standard Type>
IC50

> <Standard Relation>
'='

> <Standard Value>
7200.0

> <Standard Units>
nM

> <Outcome>
Active

> <InChIKey>
AGHODQJTQBGFTA-UHFFFAOYSA-N

> <Molecule ChEMBL ID>
CHEMBL187579

$$$$

  Mrv1817 04132013512D          

 33 36  0  0  0  0            999 V2000
    5.0168    0.1741    0.0000 C   0  0  0  0  0  0  0  0  0  0  0  0
    4.3340   -0.2889    0.0000 O   0  0  0  0  0  0  0  0  0  0  0  0
    3.6827    0.2175    0.0000 C   0  0  0  0  0  0  0  0  0  0  0  0
    3.9630    0.9934    0.0000 C   0  0  0  0  0  0  0  0  0  0  0  0
    4.7875    0.9666    0.0000 C   0  0  0  0  0  0  0  0  0  0  0  0
    5.2939    1.6179    0.0000 C   0  0  0  0  0  0  0  0  0  0  0  0
    3.4311    1.6241    0.0000 C   0  0  0  0  0  0  0  0  0  0  0  0
    3.7114    2.4000    0.0000 O   0  0  0  0  0  0  0  0  0  0  0  0
    2.6190    1.4789    0.0000 C   0  0  0  0  0  0  0  0  0  0  0  0
    2.0872    2.1096    0.0000 O   0  0  0  0  0  0  0  0  0  0  0  0
    2.3387    0.7029    0.0000 C   0  0  0  0  0  0  0  0  0  0  0  0
    2.8705    0.0722    0.0000 C   0  0  0  0  0  0  0  0  0  0  0  0
    2.5902   -0.7037    0.0000 C   0  0  0  0  0  0  0  0  0  0  0  0
    1.7781   -0.8489    0.0000 C   0  0  0  0  0  0  0  0  0  0  0  0
    1.2463   -0.2182    0.0000 C   0  0  0  0  0  0  0  0  0  0  0  0
    0.4342   -0.3634    0.0000 C   0  0  0  0  0  0  0  0  0  0  0  0
   -0.0976    0.2673    0.0000 C   0  0  0  0  0  0  0  0  0  0  0  0
    0.1827    1.0432    0.0000 C   0  0  0  0  0  0  0  0  0  0  0  0
    0.9948    1.1884    0.0000 C   0  0  0  0  0  0  0  0  0  0  0  0
    1.5266    0.5577    0.0000 C   0  0  0  0  0  0  0  0  0  0  0  0
    0.1539   -1.1393    0.0000 C   0  0  0  0  0  0  0  0  0  0  0  0
    5.7928   -0.1062    0.0000 H   0  0  0  0  0  0  0  0  0  0  0  0
    5.9452    1.1115    0.0000 H   0  0  0  0  0  0  0  0  0  0  0  0
    5.8002    2.2692    0.0000 H   0  0  0  0  0  0  0  0  0  0  0  0
    4.6425    2.1243    0.0000 H   0  0  0  0  0  0  0  0  0  0  0  0
    3.1221   -1.3344    0.0000 H   0  0  0  0  0  0  0  0  0  0  0  0
    1.4978   -1.6248    0.0000 H   0  0  0  0  0  0  0  0  0  0  0  0
   -0.9098    0.1221    0.0000 H   0  0  0  0  0  0  0  0  0  0  0  0
   -0.3492    1.6739    0.0000 H   0  0  0  0  0  0  0  0  0  0  0  0
    1.2751    1.9644    0.0000 H   0  0  0  0  0  0  0  0  0  0  0  0
   -0.6220   -0.8590    0.0000 H   0  0  0  0  0  0  0  0  0  0  0  0
   -0.1264   -1.9153    0.0000 H   0  0  0  0  0  0  0  0  0  0  0  0
    0.9298   -1.4196    0.0000 H   0  0  0  0  0  0  0  0  0  0  0  0
  1  2  4  0  0  0  0
  2  3  4  0  0  0  0
  3  4  4  0  0  0  0
  4  5  4  0  0  0  0
  1  5  4  0  0  0  0
  5  6  1  0  0  0  0
  4  7  1  0  0  0  0
  7  8  2  0  0  0  0
  7  9  1  0  0  0  0
  9 10  2  0  0  0  0
  9 11  1  0  0  0  0
 11 12  4  0  0  0  0
  3 12  1  0  0  0  0
 12 13  4  0  0  0  0
 13 14  4  0  0  0  0
 14 15  4  0  0  0  0
 15 16  4  0  0  0  0
 16 17  4  0  0  0  0
 17 18  4  0  0  0  0
 18 19  4  0  0  0  0
 19 20  4  0  0  0  0
 11 20  4  0  0  0  0
 15 20  4  0  0  0  0
 16 21  1  0  0  0  0
  1 22  1  0  0  0  0
  6 23  1  0  0  0  0
  6 24  1  0  0  0  0
  6 25  1  0  0  0  0
 13 26  1  0  0  0  0
 14 27  1  0  0  0  0
 17 28  1  0  0  0  0
 18 29  1  0  0  0  0
 19 30  1  0  0  0  0
 21 31  1  0  0  0  0
 21 32  1  0  0  0  0
 21 33  1  0  0  0  0
M  END
> <Compound_name>
5

> <Standard Type>
IC50

> <Standard Relation>
'='

> <Standard Value>
14680.0

> <Standard Units>
nM

> <Outcome>
Inactive

> <InChIKey>
AIGAZQPHXLWMOJ-UHFFFAOYSA-N

> <Molecule ChEMBL ID>
CHEMBL363535

$$$$

  Mrv1817 04132013512D          

 32 35  0  0  0  0            999 V2000
   -0.5367   -1.7691    0.0000 C   0  0  0  0  0  0  0  0  0  0  0  0
    0.0764   -2.3211    0.0000 C   0  0  0  0  0  0  0  0  0  0  0  0
   -0.2591   -3.0748    0.0000 S   0  0  0  0  0  0  0  0  0  0  0  0
   -1.0796   -2.9886    0.0000 C   0  0  0  0  0  0  0  0  0  0  0  0
   -1.6927   -3.5406    0.0000 C   0  0  0  0  0  0  0  0  0  0  0  0
   -2.4773   -3.2856    0.0000 C   0  0  0  0  0  0  0  0  0  0  0  0
   -2.6488   -2.4787    0.0000 C   0  0  0  0  0  0  0  0  0  0  0  0
   -2.0357   -1.9266    0.0000 C   0  0  0  0  0  0  0  0  0  0  0  0
   -1.2511   -2.1816    0.0000 C   0  0  0  0  0  0  0  0  0  0  0  0
    0.8834   -2.1496    0.0000 C   0  0  0  0  0  0  0  0  0  0  0  0
    1.1384   -1.3650    0.0000 N   0  0  0  0  0  0  0  0  0  0  0  0
    0.6534   -0.6975    0.0000 C   0  0  0  0  0  0  0  0  0  0  0  0
   -0.1716   -0.6975    0.0000 O   0  0  0  0  0  0  0  0  0  0  0  0
    1.1384   -0.0301    0.0000 C   0  0  0  0  0  0  0  0  0  0  0  0
    0.8834    0.7545    0.0000 O   0  0  0  0  0  0  0  0  0  0  0  0
    1.9230   -0.2850    0.0000 C   0  0  0  0  0  0  0  0  0  0  0  0
    2.6374    0.1275    0.0000 C   0  0  0  0  0  0  0  0  0  0  0  0
    3.3519   -0.2850    0.0000 C   0  0  0  0  0  0  0  0  0  0  0  0
    4.0664    0.1275    0.0000 F   0  0  0  0  0  0  0  0  0  0  0  0
    3.3519   -1.1100    0.0000 C   0  0  0  0  0  0  0  0  0  0  0  0
    2.6374   -1.5225    0.0000 C   0  0  0  0  0  0  0  0  0  0  0  0
    1.9230   -1.1100    0.0000 C   0  0  0  0  0  0  0  0  0  0  0  0
   -0.4504   -0.9486    0.0000 H   0  0  0  0  0  0  0  0  0  0  0  0
   -1.5212   -4.3476    0.0000 H   0  0  0  0  0  0  0  0  0  0  0  0
   -3.0904   -3.8377    0.0000 H   0  0  0  0  0  0  0  0  0  0  0  0
   -3.4335   -2.2237    0.0000 H   0  0  0  0  0  0  0  0  0  0  0  0
   -2.2073   -1.1197    0.0000 H   0  0  0  0  0  0  0  0  0  0  0  0
    1.1016   -2.9452    0.0000 H   0  0  0  0  0  0  0  0  0  0  0  0
    1.6519   -2.4497    0.0000 H   0  0  0  0  0  0  0  0  0  0  0  0
    2.6374    0.9525    0.0000 H   0  0  0  0  0  0  0  0  0  0  0  0
    4.0664   -1.5225    0.0000 H   0  0  0  0  0  0  0  0  0  0  0  0
    2.6374   -2.3475    0.0000 H   0  0  0  0  0  0  0  0  0  0  0  0
  1  2  4  0  0  0  0
  2  3  4  0  0  0  0
  3  4  4  0  0  0  0
  4  5  4  0  0  0  0
  5  6  4  0  0  0  0
  6  7  4  0  0  0  0
  7  8  4  0  0  0  0
  8  9  4  0  0  0  0
  1  9  4  0  0  0  0
  4  9  4  0  0  0  0
  2 10  1  0  0  0  0
 10 11  1  0  0  0  0
 11 12  1  0  0  0  0
 12 13  2  0  0  0  0
 12 14  1  0  0  0  0
 14 15  2  0  0  0  0
 14 16  1  0  0  0  0
 16 17  4  0  0  0  0
 17 18  4  0  0  0  0
 18 19  1  0  0  0  0
 18 20  4  0  0  0  0
 20 21  4  0  0  0  0
 21 22  4  0  0  0  0
 11 22  1  0  0  0  0
 16 22  4  0  0  0  0
  1 23  1  0  0  0  0
  5 24  1  0  0  0  0
  6 25  1  0  0  0  0
  7 26  1  0  0  0  0
  8 27  1  0  0  0  0
 10 28  1  0  0  0  0
 10 29  1  0  0  0  0
 17 30  1  0  0  0  0
 20 31  1  0  0  0  0
 21 32  1  0  0  0  0
M  END
> <Compound_name>
4n

> <Standard Type>
IC50

> <Standard Relation>
'='

> <Standard Value>
4820.0

> <Standard Units>
nM

> <Outcome>
Active

> <InChIKey>
ANYDLXSQWBLIIK-UHFFFAOYSA-N

> <Molecule ChEMBL ID>
CHEMBL187598

$$$$

  Mrv1817 04132013512D          

 48 51  0  0  0  0            999 V2000
   -3.4657   -2.9487    0.0000 N   0  0  0  0  0  0  0  0  0  0  0  0
   -2.7512   -2.5362    0.0000 C   0  0  0  0  0  0  0  0  0  0  0  0
   -2.7512   -1.7112    0.0000 O   0  0  0  0  0  0  0  0  0  0  0  0
   -2.0367   -2.9487    0.0000 C   0  0  0  0  0  0  0  0  0  0  0  0
   -1.3222   -2.5362    0.0000 S   0  0  0  0  0  0  0  0  0  0  0  0
   -0.6078   -2.9487    0.0000 C   0  0  0  0  0  0  0  0  0  0  0  0
    0.1067   -2.5362    0.0000 N   0  0  0  0  0  0  0  0  0  0  0  0
    0.8212   -2.9487    0.0000 C   0  0  0  0  0  0  0  0  0  0  0  0
    0.8212   -3.7737    0.0000 C   0  0  0  0  0  0  0  0  0  0  0  0
    0.1067   -4.1862    0.0000 C   0  0  0  0  0  0  0  0  0  0  0  0
   -0.6078   -3.7737    0.0000 N   0  0  0  0  0  0  0  0  0  0  0  0
    0.1067   -5.0112    0.0000 C   0  0  0  0  0  0  0  0  0  0  0  0
    0.7741   -5.4962    0.0000 S   0  0  0  0  0  0  0  0  0  0  0  0
    0.5192   -6.2808    0.0000 C   0  0  0  0  0  0  0  0  0  0  0  0
   -0.3058   -6.2808    0.0000 C   0  0  0  0  0  0  0  0  0  0  0  0
   -0.5607   -5.4962    0.0000 C   0  0  0  0  0  0  0  0  0  0  0  0
    1.0041   -6.9482    0.0000 C   0  0  0  0  0  0  0  0  0  0  0  0
    1.8291   -6.9482    0.0000 N   0  0  0  0  0  0  0  0  0  0  0  0
    2.0841   -7.7328    0.0000 N   0  0  0  0  0  0  0  0  0  0  0  0
    1.4166   -8.2178    0.0000 C   0  0  0  0  0  0  0  0  0  0  0  0
    0.7492   -7.7328    0.0000 C   0  0  0  0  0  0  0  0  0  0  0  0
    1.4166   -9.0428    0.0000 C   0  0  0  0  0  0  0  0  0  0  0  0
    1.4166   -9.8678    0.0000 F   0  0  0  0  0  0  0  0  0  0  0  0
    2.2416   -9.0428    0.0000 F   0  0  0  0  0  0  0  0  0  0  0  0
    0.5916   -9.0428    0.0000 F   0  0  0  0  0  0  0  0  0  0  0  0
    2.8687   -7.9878    0.0000 C   0  0  0  0  0  0  0  0  0  0  0  0
   -4.1801   -2.5362    0.0000 C   0  0  0  0  0  0  0  0  0  0  0  0
   -4.8946   -2.9487    0.0000 C   0  0  0  0  0  0  0  0  0  0  0  0
   -5.6091   -2.5362    0.0000 C   0  0  0  0  0  0  0  0  0  0  0  0
   -5.6091   -1.7112    0.0000 C   0  0  0  0  0  0  0  0  0  0  0  0
   -6.3235   -1.2987    0.0000 Cl  0  0  0  0  0  0  0  0  0  0  0  0
   -4.8946   -1.2987    0.0000 C   0  0  0  0  0  0  0  0  0  0  0  0
   -4.1801   -1.7112    0.0000 C   0  0  0  0  0  0  0  0  0  0  0  0
   -3.4657   -3.7737    0.0000 H   0  0  0  0  0  0  0  0  0  0  0  0
   -2.4070   -3.6860    0.0000 H   0  0  0  0  0  0  0  0  0  0  0  0
   -1.6664   -3.6860    0.0000 H   0  0  0  0  0  0  0  0  0  0  0  0
    1.5356   -2.5362    0.0000 H   0  0  0  0  0  0  0  0  0  0  0  0
    1.5356   -4.1862    0.0000 H   0  0  0  0  0  0  0  0  0  0  0  0
   -0.7907   -6.9482    0.0000 H   0  0  0  0  0  0  0  0  0  0  0  0
   -1.3454   -5.2412    0.0000 H   0  0  0  0  0  0  0  0  0  0  0  0
   -0.0354   -7.9878    0.0000 H   0  0  0  0  0  0  0  0  0  0  0  0
    2.6137   -8.7724    0.0000 H   0  0  0  0  0  0  0  0  0  0  0  0
    3.6533   -8.2427    0.0000 H   0  0  0  0  0  0  0  0  0  0  0  0
    3.1236   -7.2032    0.0000 H   0  0  0  0  0  0  0  0  0  0  0  0
   -4.8946   -3.7737    0.0000 H   0  0  0  0  0  0  0  0  0  0  0  0
   -6.3235   -2.9487    0.0000 H   0  0  0  0  0  0  0  0  0  0  0  0
   -4.8946   -0.4737    0.0000 H   0  0  0  0  0  0  0  0  0  0  0  0
   -3.4657   -1.2987    0.0000 H   0  0  0  0  0  0  0  0  0  0  0  0
  1  2  1  0  0  0  0
  2  3  2  0  0  0  0
  2  4  1  0  0  0  0
  4  5  1  0  0  0  0
  5  6  1  0  0  0  0
  6  7  4  0  0  0  0
  7  8  4  0  0  0  0
  8  9  4  0  0  0  0
  9 10  4  0  0  0  0
 10 11  4  0  0  0  0
  6 11  4  0  0  0  0
 10 12  1  0  0  0  0
 12 13  4  0  0  0  0
 13 14  4  0  0  0  0
 14 15  4  0  0  0  0
 15 16  4  0  0  0  0
 12 16  4  0  0  0  0
 14 17  1  0  0  0  0
 17 18  4  0  0  0  0
 18 19  4  0  0  0  0
 19 20  4  0  0  0  0
 20 21  4  0  0  0  0
 17 21  4  0  0  0  0
 20 22  1  0  0  0  0
 22 23  1  0  0  0  0
 22 24  1  0  0  0  0
 22 25  1  0  0  0  0
 19 26  1  0  0  0  0
  1 27  1  0  0  0  0
 27 28  4  0  0  0  0
 28 29  4  0  0  0  0
 29 30  4  0  0  0  0
 30 31  1  0  0  0  0
 30 32  4  0  0  0  0
 32 33  4  0  0  0  0
 27 33  4  0  0  0  0
  1 34  1  0  0  0  0
  4 35  1  0  0  0  0
  4 36  1  0  0  0  0
  8 37  1  0  0  0  0
  9 38  1  0  0  0  0
 15 39  1  0  0  0  0
 16 40  1  0  0  0  0
 21 41  1  0  0  0  0
 26 42  1  0  0  0  0
 26 43  1  0  0  0  0
 26 44  1  0  0  0  0
 28 45  1  0  0  0  0
 29 46  1  0  0  0  0
 32 47  1  0  0  0  0
 33 48  1  0  0  0  0
M  END
> <Compound_name>
2

> <Standard Type>
IC50

> <Standard Relation>
'='

> <Standard Value>
5.0000000005E13

> <Standard Units>
nM

> <Outcome>
Inactive

> <InChIKey>
AWQBIBTZJKFLEW-UHFFFAOYSA-N

> <Molecule ChEMBL ID>
CHEMBL377150

$$$$

  Mrv1817 04132013512D          

 37 39  0  0  0  0            999 V2000
    1.6738   -1.1654    0.0000 N   0  0  0  0  0  0  0  0  0  0  0  0
    0.9593   -1.5779    0.0000 C   0  0  0  0  0  0  0  0  0  0  0  0
    0.2449   -1.1654    0.0000 O   0  0  0  0  0  0  0  0  0  0  0  0
    0.9593   -2.4029    0.0000 C   0  0  0  0  0  0  0  0  0  0  0  0
    1.6268   -2.8879    0.0000 S   0  0  0  0  0  0  0  0  0  0  0  0
    1.3718   -3.6725    0.0000 C   0  0  0  0  0  0  0  0  0  0  0  0
    0.5468   -3.6725    0.0000 C   0  0  0  0  0  0  0  0  0  0  0  0
    0.2919   -2.8879    0.0000 C   0  0  0  0  0  0  0  0  0  0  0  0
    1.8568   -4.3399    0.0000 C   0  0  0  0  0  0  0  0  0  0  0  0
    2.6818   -4.3399    0.0000 C   0  0  0  0  0  0  0  0  0  0  0  0
    2.9367   -5.1245    0.0000 C   0  0  0  0  0  0  0  0  0  0  0  0
    2.2693   -5.6095    0.0000 N   0  0  0  0  0  0  0  0  0  0  0  0
    1.6018   -5.1245    0.0000 N   0  0  0  0  0  0  0  0  0  0  0  0
    0.8172   -5.3795    0.0000 C   0  0  0  0  0  0  0  0  0  0  0  0
    3.7213   -5.3795    0.0000 C   0  0  0  0  0  0  0  0  0  0  0  0
    4.5059   -5.6344    0.0000 F   0  0  0  0  0  0  0  0  0  0  0  0
    3.9763   -4.5949    0.0000 F   0  0  0  0  0  0  0  0  0  0  0  0
    3.4664   -6.1641    0.0000 F   0  0  0  0  0  0  0  0  0  0  0  0
    1.6738   -0.3404    0.0000 C   0  0  0  0  0  0  0  0  0  0  0  0
    1.0064    0.1445    0.0000 O   0  0  0  0  0  0  0  0  0  0  0  0
    1.2613    0.9291    0.0000 N   0  0  0  0  0  0  0  0  0  0  0  0
    2.0863    0.9291    0.0000 C   0  0  0  0  0  0  0  0  0  0  0  0
    2.3412    0.1445    0.0000 C   0  0  0  0  0  0  0  0  0  0  0  0
    3.1259   -0.1104    0.0000 N   0  0  0  0  0  0  0  0  0  0  0  0
    3.7390    0.4416    0.0000 O   0  0  0  0  0  0  0  0  0  0  0  0
    3.2974   -0.9174    0.0000 O   0  0  0  0  0  0  0  0  0  0  0  0
    2.5712    1.5966    0.0000 C   0  0  0  0  0  0  0  0  0  0  0  0
    2.3883   -1.5779    0.0000 H   0  0  0  0  0  0  0  0  0  0  0  0
    0.0619   -4.3399    0.0000 H   0  0  0  0  0  0  0  0  0  0  0  0
   -0.4927   -2.6329    0.0000 H   0  0  0  0  0  0  0  0  0  0  0  0
    3.1667   -3.6725    0.0000 H   0  0  0  0  0  0  0  0  0  0  0  0
    0.5623   -4.5949    0.0000 H   0  0  0  0  0  0  0  0  0  0  0  0
    0.0326   -5.6344    0.0000 H   0  0  0  0  0  0  0  0  0  0  0  0
    1.0721   -6.1641    0.0000 H   0  0  0  0  0  0  0  0  0  0  0  0
    3.2387    1.1116    0.0000 H   0  0  0  0  0  0  0  0  0  0  0  0
    3.0562    2.2640    0.0000 H   0  0  0  0  0  0  0  0  0  0  0  0
    1.9038    2.0815    0.0000 H   0  0  0  0  0  0  0  0  0  0  0  0
  1  2  1  0  0  0  0
  2  3  2  0  0  0  0
  2  4  1  0  0  0  0
  4  5  4  0  0  0  0
  5  6  4  0  0  0  0
  6  7  4  0  0  0  0
  7  8  4  0  0  0  0
  4  8  4  0  0  0  0
  6  9  1  0  0  0  0
  9 10  4  0  0  0  0
 10 11  4  0  0  0  0
 11 12  4  0  0  0  0
 12 13  4  0  0  0  0
  9 13  4  0  0  0  0
 13 14  1  0  0  0  0
 11 15  1  0  0  0  0
 15 16  1  0  0  0  0
 15 17  1  0  0  0  0
 15 18  1  0  0  0  0
  1 19  1  0  0  0  0
 19 20  4  0  0  0  0
 20 21  4  0  0  0  0
 21 22  4  0  0  0  0
 22 23  4  0  0  0  0
 19 23  4  0  0  0  0
 23 24  1  0  0  0  0
 24 25  2  0  0  0  0
 24 26  2  0  0  0  0
 22 27  1  0  0  0  0
  1 28  1  0  0  0  0
  7 29  1  0  0  0  0
  8 30  1  0  0  0  0
 10 31  1  0  0  0  0
 14 32  1  0  0  0  0
 14 33  1  0  0  0  0
 14 34  1  0  0  0  0
 27 35  1  0  0  0  0
 27 36  1  0  0  0  0
 27 37  1  0  0  0  0
M  END
> <Compound_name>
16

> <Standard Type>
IC50

> <Standard Relation>
'='

> <Standard Value>
5000.0

> <Standard Units>
nM

> <Outcome>
Active

> <InChIKey>
BCEDEDBQGPNQMM-UHFFFAOYSA-N

> <Molecule ChEMBL ID>
CHEMBL427404

$$$$

  Mrv1817 04132013512D          

 34 37  0  0  0  0            999 V2000
   -0.5366   -1.7691    0.0000 C   0  0  0  0  0  0  0  0  0  0  0  0
    0.0765   -2.3211    0.0000 C   0  0  0  0  0  0  0  0  0  0  0  0
   -0.2591   -3.0748    0.0000 S   0  0  0  0  0  0  0  0  0  0  0  0
   -1.0796   -2.9886    0.0000 C   0  0  0  0  0  0  0  0  0  0  0  0
   -1.6927   -3.5406    0.0000 C   0  0  0  0  0  0  0  0  0  0  0  0
   -2.4773   -3.2857    0.0000 C   0  0  0  0  0  0  0  0  0  0  0  0
   -2.6488   -2.4787    0.0000 C   0  0  0  0  0  0  0  0  0  0  0  0
   -2.0357   -1.9267    0.0000 C   0  0  0  0  0  0  0  0  0  0  0  0
   -1.2511   -2.1816    0.0000 C   0  0  0  0  0  0  0  0  0  0  0  0
    0.8834   -2.1496    0.0000 C   0  0  0  0  0  0  0  0  0  0  0  0
    1.1384   -1.3650    0.0000 N   0  0  0  0  0  0  0  0  0  0  0  0
    0.6534   -0.6975    0.0000 C   0  0  0  0  0  0  0  0  0  0  0  0
   -0.1716   -0.6975    0.0000 O   0  0  0  0  0  0  0  0  0  0  0  0
    1.1384   -0.0301    0.0000 C   0  0  0  0  0  0  0  0  0  0  0  0
    0.8834    0.7545    0.0000 O   0  0  0  0  0  0  0  0  0  0  0  0
    1.9230   -0.2850    0.0000 C   0  0  0  0  0  0  0  0  0  0  0  0
    2.6375    0.1275    0.0000 C   0  0  0  0  0  0  0  0  0  0  0  0
    3.3519   -0.2850    0.0000 C   0  0  0  0  0  0  0  0  0  0  0  0
    3.3519   -1.1100    0.0000 C   0  0  0  0  0  0  0  0  0  0  0  0
    2.6375   -1.5225    0.0000 C   0  0  0  0  0  0  0  0  0  0  0  0
    1.9230   -1.1100    0.0000 C   0  0  0  0  0  0  0  0  0  0  0  0
    2.6375   -2.3475    0.0000 N   0  0  0  0  0  0  0  0  0  0  0  0
    1.9230   -2.7600    0.0000 O   0  0  0  0  0  0  0  0  0  0  0  0
    3.3519   -2.7600    0.0000 O   0  0  0  0  0  0  0  0  0  0  0  0
   -0.4504   -0.9486    0.0000 H   0  0  0  0  0  0  0  0  0  0  0  0
   -1.5211   -4.3476    0.0000 H   0  0  0  0  0  0  0  0  0  0  0  0
   -3.0904   -3.8377    0.0000 H   0  0  0  0  0  0  0  0  0  0  0  0
   -3.4334   -2.2238    0.0000 H   0  0  0  0  0  0  0  0  0  0  0  0
   -2.2073   -1.1197    0.0000 H   0  0  0  0  0  0  0  0  0  0  0  0
    1.1016   -2.9452    0.0000 H   0  0  0  0  0  0  0  0  0  0  0  0
    1.6519   -2.4497    0.0000 H   0  0  0  0  0  0  0  0  0  0  0  0
    2.6375    0.9525    0.0000 H   0  0  0  0  0  0  0  0  0  0  0  0
    4.0664    0.1275    0.0000 H   0  0  0  0  0  0  0  0  0  0  0  0
    4.0664   -1.5225    0.0000 H   0  0  0  0  0  0  0  0  0  0  0  0
  1  2  4  0  0  0  0
  2  3  4  0  0  0  0
  3  4  4  0  0  0  0
  4  5  4  0  0  0  0
  5  6  4  0  0  0  0
  6  7  4  0  0  0  0
  7  8  4  0  0  0  0
  8  9  4  0  0  0  0
  1  9  4  0  0  0  0
  4  9  4  0  0  0  0
  2 10  1  0  0  0  0
 10 11  1  0  0  0  0
 11 12  1  0  0  0  0
 12 13  2  0  0  0  0
 12 14  1  0  0  0  0
 14 15  2  0  0  0  0
 14 16  1  0  0  0  0
 16 17  4  0  0  0  0
 17 18  4  0  0  0  0
 18 19  4  0  0  0  0
 19 20  4  0  0  0  0
 20 21  4  0  0  0  0
 11 21  1  0  0  0  0
 16 21  4  0  0  0  0
 20 22  1  0  0  0  0
 22 23  2  0  0  0  0
 22 24  2  0  0  0  0
  1 25  1  0  0  0  0
  5 26  1  0  0  0  0
  6 27  1  0  0  0  0
  7 28  1  0  0  0  0
  8 29  1  0  0  0  0
 10 30  1  0  0  0  0
 10 31  1  0  0  0  0
 17 32  1  0  0  0  0
 18 33  1  0  0  0  0
 19 34  1  0  0  0  0
M  END
> <Compound_name>
4i

> <Standard Type>
IC50

> <Standard Relation>
'='

> <Standard Value>
2000.0

> <Standard Units>
nM

> <Outcome>
Active

> <InChIKey>
BEXUOOJPJCTWKL-UHFFFAOYSA-N

> <Molecule ChEMBL ID>
CHEMBL187717

$$$$

  Mrv1817 04132013512D          

 29 30  0  0  0  0            999 V2000
    0.7145   -2.0625    0.0000 C   0  0  0  0  0  0  0  0  0  0  0  0
    1.4290   -2.4750    0.0000 C   0  0  0  0  0  0  0  0  0  0  0  0
    1.4290   -3.3000    0.0000 C   0  0  0  0  0  0  0  0  0  0  0  0
    0.7145   -3.7125    0.0000 C   0  0  0  0  0  0  0  0  0  0  0  0
    0.0000   -3.3000    0.0000 C   0  0  0  0  0  0  0  0  0  0  0  0
    0.0000   -2.4750    0.0000 C   0  0  0  0  0  0  0  0  0  0  0  0
   -0.7145   -2.0625    0.0000 N   0  0  0  0  0  0  0  0  0  0  0  0
   -0.7145   -1.2375    0.0000 O   0  0  0  0  0  0  0  0  0  0  0  0
   -1.4289   -2.4750    0.0000 O   0  0  0  0  0  0  0  0  0  0  0  0
    2.1434   -3.7125    0.0000 S   0  0  0  0  0  0  0  0  0  0  0  0
    1.7309   -4.4270    0.0000 O   0  0  0  0  0  0  0  0  0  0  0  0
    2.5559   -2.9980    0.0000 O   0  0  0  0  0  0  0  0  0  0  0  0
    2.8579   -4.1250    0.0000 C   0  0  0  0  0  0  0  0  0  0  0  0
    3.5724   -3.7125    0.0000 C   0  0  0  0  0  0  0  0  0  0  0  0
    4.2868   -4.1250    0.0000 C   0  0  0  0  0  0  0  0  0  0  0  0
    4.2868   -4.9500    0.0000 C   0  0  0  0  0  0  0  0  0  0  0  0
    3.5724   -5.3625    0.0000 C   0  0  0  0  0  0  0  0  0  0  0  0
    2.8579   -4.9500    0.0000 C   0  0  0  0  0  0  0  0  0  0  0  0
    5.0013   -5.3625    0.0000 N   0  0  0  0  0  0  0  0  0  0  0  0
    5.7158   -4.9500    0.0000 O   0  0  0  0  0  0  0  0  0  0  0  0
    5.0013   -6.1875    0.0000 O   0  0  0  0  0  0  0  0  0  0  0  0
    0.7145   -1.2375    0.0000 H   0  0  0  0  0  0  0  0  0  0  0  0
    2.1434   -2.0625    0.0000 H   0  0  0  0  0  0  0  0  0  0  0  0
    0.7145   -4.5375    0.0000 H   0  0  0  0  0  0  0  0  0  0  0  0
   -0.7145   -3.7125    0.0000 H   0  0  0  0  0  0  0  0  0  0  0  0
    3.5724   -2.8875    0.0000 H   0  0  0  0  0  0  0  0  0  0  0  0
    5.0013   -3.7125    0.0000 H   0  0  0  0  0  0  0  0  0  0  0  0
    3.5724   -6.1875    0.0000 H   0  0  0  0  0  0  0  0  0  0  0  0
    2.1434   -5.3625    0.0000 H   0  0  0  0  0  0  0  0  0  0  0  0
  1  2  4  0  0  0  0
  2  3  4  0  0  0  0
  3  4  4  0  0  0  0
  4  5  4  0  0  0  0
  5  6  4  0  0  0  0
  1  6  4  0  0  0  0
  6  7  1  0  0  0  0
  7  8  2  0  0  0  0
  7  9  2  0  0  0  0
  3 10  1  0  0  0  0
 10 11  2  0  0  0  0
 10 12  2  0  0  0  0
 10 13  1  0  0  0  0
 13 14  4  0  0  0  0
 14 15  4  0  0  0  0
 15 16  4  0  0  0  0
 16 17  4  0  0  0  0
 17 18  4  0  0  0  0
 13 18  4  0  0  0  0
 16 19  1  0  0  0  0
 19 20  2  0  0  0  0
 19 21  2  0  0  0  0
  1 22  1  0  0  0  0
  2 23  1  0  0  0  0
  4 24  1  0  0  0  0
  5 25  1  0  0  0  0
 14 26  1  0  0  0  0
 15 27  1  0  0  0  0
 17 28  1  0  0  0  0
 18 29  1  0  0  0  0
M  END
> <Compound_name>
13

> <Standard Type>
IC50

> <Standard Relation>
'='

> <Standard Value>
25000.0

> <Standard Units>
nM

> <Outcome>
Inactive

> <InChIKey>
BVHNGWRPAFKGFP-UHFFFAOYSA-N

> <Molecule ChEMBL ID>
CHEMBL215397

$$$$

  Mrv1817 04132013512D          

 37 39  0  0  0  0            999 V2000
    4.9517   -0.4597    0.0000 N   0  0  0  0  0  0  0  0  0  0  0  0
    4.2372   -0.8722    0.0000 C   0  0  0  0  0  0  0  0  0  0  0  0
    3.5228   -0.4597    0.0000 O   0  0  0  0  0  0  0  0  0  0  0  0
    4.2372   -1.6972    0.0000 C   0  0  0  0  0  0  0  0  0  0  0  0
    4.9047   -2.1821    0.0000 S   0  0  0  0  0  0  0  0  0  0  0  0
    4.6497   -2.9667    0.0000 C   0  0  0  0  0  0  0  0  0  0  0  0
    3.8247   -2.9667    0.0000 C   0  0  0  0  0  0  0  0  0  0  0  0
    3.5698   -2.1821    0.0000 C   0  0  0  0  0  0  0  0  0  0  0  0
    4.9517    0.3653    0.0000 C   0  0  0  0  0  0  0  0  0  0  0  0
    4.2843    0.8503    0.0000 N   0  0  0  0  0  0  0  0  0  0  0  0
    4.5392    1.6349    0.0000 N   0  0  0  0  0  0  0  0  0  0  0  0
    5.3642    1.6349    0.0000 C   0  0  0  0  0  0  0  0  0  0  0  0
    5.8491    2.3023    0.0000 S   0  0  0  0  0  0  0  0  0  0  0  0
    6.6696    2.2161    0.0000 C   0  0  0  0  0  0  0  0  0  0  0  0
    5.6191    0.8503    0.0000 C   0  0  0  0  0  0  0  0  0  0  0  0
    6.4038    0.5953    0.0000 S   0  0  0  0  0  0  0  0  0  0  0  0
    6.1488   -0.1893    0.0000 O   0  0  0  0  0  0  0  0  0  0  0  0
    6.6587    1.3799    0.0000 O   0  0  0  0  0  0  0  0  0  0  0  0
    7.1884    0.3404    0.0000 C   0  0  0  0  0  0  0  0  0  0  0  0
    7.8015    0.8924    0.0000 C   0  0  0  0  0  0  0  0  0  0  0  0
    8.5861    0.6375    0.0000 C   0  0  0  0  0  0  0  0  0  0  0  0
    8.7576   -0.1695    0.0000 C   0  0  0  0  0  0  0  0  0  0  0  0
    8.1445   -0.7215    0.0000 C   0  0  0  0  0  0  0  0  0  0  0  0
    7.3599   -0.4666    0.0000 C   0  0  0  0  0  0  0  0  0  0  0  0
    5.6662   -0.8722    0.0000 H   0  0  0  0  0  0  0  0  0  0  0  0
    5.1347   -3.6342    0.0000 H   0  0  0  0  0  0  0  0  0  0  0  0
    3.3398   -3.6342    0.0000 H   0  0  0  0  0  0  0  0  0  0  0  0
    2.7852   -1.9272    0.0000 H   0  0  0  0  0  0  0  0  0  0  0  0
    3.4996    0.5953    0.0000 H   0  0  0  0  0  0  0  0  0  0  0  0
    7.4200    1.8732    0.0000 H   0  0  0  0  0  0  0  0  0  0  0  0
    7.2863    2.7641    0.0000 H   0  0  0  0  0  0  0  0  0  0  0  0
    6.4172    3.0015    0.0000 H   0  0  0  0  0  0  0  0  0  0  0  0
    7.6299    1.6994    0.0000 H   0  0  0  0  0  0  0  0  0  0  0  0
    9.1992    1.1895    0.0000 H   0  0  0  0  0  0  0  0  0  0  0  0
    9.5422   -0.4244    0.0000 H   0  0  0  0  0  0  0  0  0  0  0  0
    8.3161   -1.5285    0.0000 H   0  0  0  0  0  0  0  0  0  0  0  0
    6.7468   -1.0186    0.0000 H   0  0  0  0  0  0  0  0  0  0  0  0
  1  2  1  0  0  0  0
  2  3  2  0  0  0  0
  2  4  1  0  0  0  0
  4  5  4  0  0  0  0
  5  6  4  0  0  0  0
  6  7  4  0  0  0  0
  7  8  4  0  0  0  0
  4  8  4  0  0  0  0
  1  9  1  0  0  0  0
  9 10  4  0  0  0  0
 10 11  4  0  0  0  0
 11 12  4  0  0  0  0
 12 13  1  0  0  0  0
 13 14  1  0  0  0  0
 12 15  4  0  0  0  0
  9 15  4  0  0  0  0
 15 16  1  0  0  0  0
 16 17  2  0  0  0  0
 16 18  2  0  0  0  0
 16 19  1  0  0  0  0
 19 20  4  0  0  0  0
 20 21  4  0  0  0  0
 21 22  4  0  0  0  0
 22 23  4  0  0  0  0
 23 24  4  0  0  0  0
 19 24  4  0  0  0  0
  1 25  1  0  0  0  0
  6 26  1  0  0  0  0
  7 27  1  0  0  0  0
  8 28  1  0  0  0  0
 10 29  1  0  0  0  0
 14 30  1  0  0  0  0
 14 31  1  0  0  0  0
 14 32  1  0  0  0  0
 20 33  1  0  0  0  0
 21 34  1  0  0  0  0
 22 35  1  0  0  0  0
 23 36  1  0  0  0  0
 24 37  1  0  0  0  0
M  END
> <Compound_name>
18

> <Standard Type>
IC50

> <Standard Relation>
'='

> <Standard Value>
15000.0

> <Standard Units>
nM

> <Outcome>
Inactive

> <InChIKey>
CACIKPKEDXYLDG-UHFFFAOYSA-N

> <Molecule ChEMBL ID>
CHEMBL378700

$$$$

  Mrv1817 04132013512D          

 35 38  0  0  0  0            999 V2000
    0.7229   -1.2331    0.0000 C   0  0  0  0  0  0  0  0  0  0  0  0
    0.7229   -0.4081    0.0000 C   0  0  0  0  0  0  0  0  0  0  0  0
    1.4374    0.0044    0.0000 C   0  0  0  0  0  0  0  0  0  0  0  0
    2.1519   -0.4081    0.0000 C   0  0  0  0  0  0  0  0  0  0  0  0
    2.8663    0.0044    0.0000 O   0  0  0  0  0  0  0  0  0  0  0  0
    3.5808   -0.4081    0.0000 C   0  0  0  0  0  0  0  0  0  0  0  0
    4.2953    0.0044    0.0000 C   0  0  0  0  0  0  0  0  0  0  0  0
    4.2953    0.8294    0.0000 N   0  0  0  0  0  0  0  0  0  0  0  0
    3.6278    1.3144    0.0000 C   0  0  0  0  0  0  0  0  0  0  0  0
    2.8432    1.0594    0.0000 O   0  0  0  0  0  0  0  0  0  0  0  0
    3.8828    2.0990    0.0000 C   0  0  0  0  0  0  0  0  0  0  0  0
    3.3979    2.7664    0.0000 O   0  0  0  0  0  0  0  0  0  0  0  0
    4.7078    2.0990    0.0000 C   0  0  0  0  0  0  0  0  0  0  0  0
    5.2598    2.7121    0.0000 C   0  0  0  0  0  0  0  0  0  0  0  0
    6.0668    2.5405    0.0000 C   0  0  0  0  0  0  0  0  0  0  0  0
    6.6188    3.1536    0.0000 I   0  0  0  0  0  0  0  0  0  0  0  0
    6.3217    1.7559    0.0000 C   0  0  0  0  0  0  0  0  0  0  0  0
    5.7697    1.1428    0.0000 C   0  0  0  0  0  0  0  0  0  0  0  0
    4.9627    1.3144    0.0000 C   0  0  0  0  0  0  0  0  0  0  0  0
    3.5808   -1.2331    0.0000 C   0  0  0  0  0  0  0  0  0  0  0  0
    2.8663   -1.6456    0.0000 O   0  0  0  0  0  0  0  0  0  0  0  0
    2.1519   -1.2331    0.0000 C   0  0  0  0  0  0  0  0  0  0  0  0
    1.4374   -1.6456    0.0000 C   0  0  0  0  0  0  0  0  0  0  0  0
    0.0084   -1.6456    0.0000 H   0  0  0  0  0  0  0  0  0  0  0  0
    0.0084    0.0044    0.0000 H   0  0  0  0  0  0  0  0  0  0  0  0
    1.4374    0.8294    0.0000 H   0  0  0  0  0  0  0  0  0  0  0  0
    4.2953   -0.8206    0.0000 H   0  0  0  0  0  0  0  0  0  0  0  0
    5.0705   -0.2777    0.0000 H   0  0  0  0  0  0  0  0  0  0  0  0
    5.0705    0.2866    0.0000 H   0  0  0  0  0  0  0  0  0  0  0  0
    5.0049    3.4967    0.0000 H   0  0  0  0  0  0  0  0  0  0  0  0
    7.1287    1.5844    0.0000 H   0  0  0  0  0  0  0  0  0  0  0  0
    6.0246    0.3582    0.0000 H   0  0  0  0  0  0  0  0  0  0  0  0
    3.7241   -2.0455    0.0000 H   0  0  0  0  0  0  0  0  0  0  0  0
    4.2128   -1.7634    0.0000 H   0  0  0  0  0  0  0  0  0  0  0  0
    1.4374   -2.4706    0.0000 H   0  0  0  0  0  0  0  0  0  0  0  0
  1  2  4  0  0  0  0
  2  3  4  0  0  0  0
  3  4  4  0  0  0  0
  4  5  1  0  0  0  0
  5  6  1  0  0  0  0
  6  7  1  0  0  0  0
  7  8  1  0  0  0  0
  8  9  1  0  0  0  0
  9 10  2  0  0  0  0
  9 11  1  0  0  0  0
 11 12  2  0  0  0  0
 11 13  1  0  0  0  0
 13 14  4  0  0  0  0
 14 15  4  0  0  0  0
 15 16  1  0  0  0  0
 15 17  4  0  0  0  0
 17 18  4  0  0  0  0
 18 19  4  0  0  0  0
  8 19  1  0  0  0  0
 13 19  4  0  0  0  0
  6 20  1  0  0  0  0
 20 21  1  0  0  0  0
 21 22  1  0  0  0  0
  4 22  4  0  0  0  0
 22 23  4  0  0  0  0
  1 23  4  0  0  0  0
  1 24  1  0  0  0  0
  2 25  1  0  0  0  0
  3 26  1  0  0  0  0
  6 27  1  0  0  0  0
  7 28  1  0  0  0  0
  7 29  1  0  0  0  0
 14 30  1  0  0  0  0
 17 31  1  0  0  0  0
 18 32  1  0  0  0  0
 20 33  1  0  0  0  0
 20 34  1  0  0  0  0
 23 35  1  0  0  0  0
M  END
> <Compound_name>
4d

> <Standard Type>
IC50

> <Standard Relation>
'='

> <Standard Value>
13500.0

> <Standard Units>
nM

> <Outcome>
Inactive

> <InChIKey>
CDKFEFPWJYFQEG-UHFFFAOYNA-N

> <Molecule ChEMBL ID>
CHEMBL185698

$$$$

  Mrv1817 04132013512D          

 37 38  0  0  0  0            999 V2000
    0.7210   -2.0645    0.0000 N   0  0  0  0  0  0  0  0  0  0  0  0
    1.4355   -1.6520    0.0000 C   0  0  0  0  0  0  0  0  0  0  0  0
    1.4355   -0.8270    0.0000 O   0  0  0  0  0  0  0  0  0  0  0  0
    2.1499   -2.0645    0.0000 C   0  0  0  0  0  0  0  0  0  0  0  0
    2.8644   -1.6520    0.0000 S   0  0  0  0  0  0  0  0  0  0  0  0
    3.5789   -2.0645    0.0000 C   0  0  0  0  0  0  0  0  0  0  0  0
    4.2933   -1.6520    0.0000 N   0  0  0  0  0  0  0  0  0  0  0  0
    5.0078   -2.0645    0.0000 C   0  0  0  0  0  0  0  0  0  0  0  0
    5.7223   -1.6520    0.0000 O   0  0  0  0  0  0  0  0  0  0  0  0
    5.0078   -2.8895    0.0000 C   0  0  0  0  0  0  0  0  0  0  0  0
    4.2933   -3.3020    0.0000 C   0  0  0  0  0  0  0  0  0  0  0  0
    3.5789   -2.8895    0.0000 N   0  0  0  0  0  0  0  0  0  0  0  0
    4.2933   -4.1270    0.0000 C   0  0  0  0  0  0  0  0  0  0  0  0
    5.7223   -3.3020    0.0000 C   0  0  0  0  0  0  0  0  0  0  0  0
    0.0065   -1.6520    0.0000 C   0  0  0  0  0  0  0  0  0  0  0  0
   -0.7080   -2.0645    0.0000 C   0  0  0  0  0  0  0  0  0  0  0  0
   -1.4224   -1.6520    0.0000 C   0  0  0  0  0  0  0  0  0  0  0  0
   -1.4224   -0.8270    0.0000 C   0  0  0  0  0  0  0  0  0  0  0  0
   -0.7080   -0.4145    0.0000 C   0  0  0  0  0  0  0  0  0  0  0  0
    0.0065   -0.8270    0.0000 C   0  0  0  0  0  0  0  0  0  0  0  0
   -2.1369   -0.4145    0.0000 N   0  0  0  0  0  0  0  0  0  0  0  0
   -2.8514   -0.8270    0.0000 O   0  0  0  0  0  0  0  0  0  0  0  0
   -2.1369    0.4105    0.0000 O   0  0  0  0  0  0  0  0  0  0  0  0
    0.7210   -2.8895    0.0000 H   0  0  0  0  0  0  0  0  0  0  0  0
    1.7797   -2.8018    0.0000 H   0  0  0  0  0  0  0  0  0  0  0  0
    2.5202   -2.8018    0.0000 H   0  0  0  0  0  0  0  0  0  0  0  0
    2.8644   -3.3020    0.0000 H   0  0  0  0  0  0  0  0  0  0  0  0
    3.4683   -4.1270    0.0000 H   0  0  0  0  0  0  0  0  0  0  0  0
    4.2933   -4.9520    0.0000 H   0  0  0  0  0  0  0  0  0  0  0  0
    5.1183   -4.1270    0.0000 H   0  0  0  0  0  0  0  0  0  0  0  0
    5.3098   -4.0165    0.0000 H   0  0  0  0  0  0  0  0  0  0  0  0
    6.4368   -3.7145    0.0000 H   0  0  0  0  0  0  0  0  0  0  0  0
    6.1348   -2.5876    0.0000 H   0  0  0  0  0  0  0  0  0  0  0  0
   -0.7080   -2.8895    0.0000 H   0  0  0  0  0  0  0  0  0  0  0  0
   -2.1369   -2.0645    0.0000 H   0  0  0  0  0  0  0  0  0  0  0  0
   -0.7080    0.4105    0.0000 H   0  0  0  0  0  0  0  0  0  0  0  0
    0.7210   -0.4145    0.0000 H   0  0  0  0  0  0  0  0  0  0  0  0
  1  2  1  0  0  0  0
  2  3  2  0  0  0  0
  2  4  1  0  0  0  0
  4  5  1  0  0  0  0
  5  6  1  0  0  0  0
  6  7  2  0  0  0  0
  7  8  1  0  0  0  0
  8  9  2  0  0  0  0
  8 10  1  0  0  0  0
 10 11  2  0  0  0  0
 11 12  1  0  0  0  0
  6 12  1  0  0  0  0
 11 13  1  0  0  0  0
 10 14  1  0  0  0  0
  1 15  1  0  0  0  0
 15 16  4  0  0  0  0
 16 17  4  0  0  0  0
 17 18  4  0  0  0  0
 18 19  4  0  0  0  0
 19 20  4  0  0  0  0
 15 20  4  0  0  0  0
 18 21  1  0  0  0  0
 21 22  2  0  0  0  0
 21 23  2  0  0  0  0
  1 24  1  0  0  0  0
  4 25  1  0  0  0  0
  4 26  1  0  0  0  0
 12 27  1  0  0  0  0
 13 28  1  0  0  0  0
 13 29  1  0  0  0  0
 13 30  1  0  0  0  0
 14 31  1  0  0  0  0
 14 32  1  0  0  0  0
 14 33  1  0  0  0  0
 16 34  1  0  0  0  0
 17 35  1  0  0  0  0
 19 36  1  0  0  0  0
 20 37  1  0  0  0  0
M  END
> <Compound_name>
28

> <Standard Type>
IC50

> <Standard Relation>
'<'

> <Standard Value>
5.000005E11

> <Standard Units>
nM

> <Outcome>
Inactive

> <InChIKey>
CGYVDJOFAZUVFX-UHFFFAOYSA-N

> <Molecule ChEMBL ID>
CHEMBL210216

$$$$

  Mrv1817 04132013512D          

 51 53  0  0  0  0            999 V2000
    0.7250   -2.0702    0.0000 N   0  0  0  0  0  0  0  0  0  0  0  0
    1.4395   -1.6577    0.0000 C   0  0  0  0  0  0  0  0  0  0  0  0
    1.4395   -0.8327    0.0000 O   0  0  0  0  0  0  0  0  0  0  0  0
    2.1540   -2.0702    0.0000 C   0  0  0  0  0  0  0  0  0  0  0  0
    2.8684   -1.6577    0.0000 S   0  0  0  0  0  0  0  0  0  0  0  0
    3.5829   -2.0702    0.0000 C   0  0  0  0  0  0  0  0  0  0  0  0
    4.2974   -1.6577    0.0000 N   0  0  0  0  0  0  0  0  0  0  0  0
    5.0118   -2.0702    0.0000 C   0  0  0  0  0  0  0  0  0  0  0  0
    5.0118   -2.8952    0.0000 C   0  0  0  0  0  0  0  0  0  0  0  0
    4.2974   -3.3077    0.0000 C   0  0  0  0  0  0  0  0  0  0  0  0
    3.5829   -2.8952    0.0000 N   0  0  0  0  0  0  0  0  0  0  0  0
    4.2974   -4.1327    0.0000 C   0  0  0  0  0  0  0  0  0  0  0  0
    5.0118   -4.5452    0.0000 C   0  0  0  0  0  0  0  0  0  0  0  0
    5.0118   -5.3702    0.0000 C   0  0  0  0  0  0  0  0  0  0  0  0
    4.2974   -5.7827    0.0000 C   0  0  0  0  0  0  0  0  0  0  0  0
    4.2974   -6.6077    0.0000 O   0  0  0  0  0  0  0  0  0  0  0  0
    3.5829   -7.0202    0.0000 C   0  0  0  0  0  0  0  0  0  0  0  0
    3.5829   -5.3702    0.0000 C   0  0  0  0  0  0  0  0  0  0  0  0
    3.5829   -4.5452    0.0000 C   0  0  0  0  0  0  0  0  0  0  0  0
    0.0105   -1.6577    0.0000 C   0  0  0  0  0  0  0  0  0  0  0  0
   -0.7039   -2.0702    0.0000 C   0  0  0  0  0  0  0  0  0  0  0  0
   -1.4184   -1.6577    0.0000 C   0  0  0  0  0  0  0  0  0  0  0  0
   -1.4184   -0.8327    0.0000 C   0  0  0  0  0  0  0  0  0  0  0  0
   -0.7039   -0.4202    0.0000 C   0  0  0  0  0  0  0  0  0  0  0  0
    0.0105   -0.8327    0.0000 C   0  0  0  0  0  0  0  0  0  0  0  0
   -2.1329   -0.4202    0.0000 C   0  0  0  0  0  0  0  0  0  0  0  0
   -2.8473   -0.8327    0.0000 C   0  0  0  0  0  0  0  0  0  0  0  0
   -2.1329    0.4048    0.0000 C   0  0  0  0  0  0  0  0  0  0  0  0
    0.7250   -2.8952    0.0000 H   0  0  0  0  0  0  0  0  0  0  0  0
    1.7837   -2.8075    0.0000 H   0  0  0  0  0  0  0  0  0  0  0  0
    2.5242   -2.8075    0.0000 H   0  0  0  0  0  0  0  0  0  0  0  0
    5.7263   -1.6577    0.0000 H   0  0  0  0  0  0  0  0  0  0  0  0
    5.7263   -3.3077    0.0000 H   0  0  0  0  0  0  0  0  0  0  0  0
    5.7263   -4.1327    0.0000 H   0  0  0  0  0  0  0  0  0  0  0  0
    5.7263   -5.7827    0.0000 H   0  0  0  0  0  0  0  0  0  0  0  0
    3.1704   -6.3058    0.0000 H   0  0  0  0  0  0  0  0  0  0  0  0
    2.8684   -7.4327    0.0000 H   0  0  0  0  0  0  0  0  0  0  0  0
    3.9954   -7.7347    0.0000 H   0  0  0  0  0  0  0  0  0  0  0  0
    2.8684   -5.7827    0.0000 H   0  0  0  0  0  0  0  0  0  0  0  0
    2.8684   -4.1327    0.0000 H   0  0  0  0  0  0  0  0  0  0  0  0
   -0.7039   -2.8952    0.0000 H   0  0  0  0  0  0  0  0  0  0  0  0
   -2.1329   -2.0702    0.0000 H   0  0  0  0  0  0  0  0  0  0  0  0
   -0.7039    0.4048    0.0000 H   0  0  0  0  0  0  0  0  0  0  0  0
    0.7250   -0.4202    0.0000 H   0  0  0  0  0  0  0  0  0  0  0  0
   -2.1329   -1.2452    0.0000 H   0  0  0  0  0  0  0  0  0  0  0  0
   -3.0609   -0.0359    0.0000 H   0  0  0  0  0  0  0  0  0  0  0  0
   -3.6723   -0.8327    0.0000 H   0  0  0  0  0  0  0  0  0  0  0  0
   -3.0609   -1.6296    0.0000 H   0  0  0  0  0  0  0  0  0  0  0  0
   -1.3079    0.4048    0.0000 H   0  0  0  0  0  0  0  0  0  0  0  0
   -2.1329    1.2298    0.0000 H   0  0  0  0  0  0  0  0  0  0  0  0
   -2.9579    0.4048    0.0000 H   0  0  0  0  0  0  0  0  0  0  0  0
  1  2  1  0  0  0  0
  2  3  2  0  0  0  0
  2  4  1  0  0  0  0
  4  5  1  0  0  0  0
  5  6  1  0  0  0  0
  6  7  4  0  0  0  0
  7  8  4  0  0  0  0
  8  9  4  0  0  0  0
  9 10  4  0  0  0  0
 10 11  4  0  0  0  0
  6 11  4  0  0  0  0
 10 12  1  0  0  0  0
 12 13  4  0  0  0  0
 13 14  4  0  0  0  0
 14 15  4  0  0  0  0
 15 16  1  0  0  0  0
 16 17  1  0  0  0  0
 15 18  4  0  0  0  0
 18 19  4  0  0  0  0
 12 19  4  0  0  0  0
  1 20  1  0  0  0  0
 20 21  4  0  0  0  0
 21 22  4  0  0  0  0
 22 23  4  0  0  0  0
 23 24  4  0  0  0  0
 24 25  4  0  0  0  0
 20 25  4  0  0  0  0
 23 26  1  0  0  0  0
 26 27  1  0  0  0  0
 26 28  1  0  0  0  0
  1 29  1  0  0  0  0
  4 30  1  0  0  0  0
  4 31  1  0  0  0  0
  8 32  1  0  0  0  0
  9 33  1  0  0  0  0
 13 34  1  0  0  0  0
 14 35  1  0  0  0  0
 17 36  1  0  0  0  0
 17 37  1  0  0  0  0
 17 38  1  0  0  0  0
 18 39  1  0  0  0  0
 19 40  1  0  0  0  0
 21 41  1  0  0  0  0
 22 42  1  0  0  0  0
 24 43  1  0  0  0  0
 25 44  1  0  0  0  0
 26 45  1  0  0  0  0
 27 46  1  0  0  0  0
 27 47  1  0  0  0  0
 27 48  1  0  0  0  0
 28 49  1  0  0  0  0
 28 50  1  0  0  0  0
 28 51  1  0  0  0  0
M  END
> <Compound_name>
26

> <Standard Type>
IC50

> <Standard Relation>
'='

> <Standard Value>
1.227354657842515E12

> <Standard Units>
nM

> <Outcome>
Inactive

> <InChIKey>
CJBZKDWWJIGHRP-UHFFFAOYSA-N

> <Molecule ChEMBL ID>
CHEMBL210437

$$$$

  Mrv1817 04132013512D          

 20 21  0  0  0  0            999 V2000
    1.4289   -2.4750    0.0000 C   0  0  0  0  0  0  0  0  0  0  0  0
    2.0964   -2.9599    0.0000 N   0  0  0  0  0  0  0  0  0  0  0  0
    1.8414   -3.7446    0.0000 C   0  0  0  0  0  0  0  0  0  0  0  0
    1.0164   -3.7446    0.0000 C   0  0  0  0  0  0  0  0  0  0  0  0
    0.7615   -2.9599    0.0000 S   0  0  0  0  0  0  0  0  0  0  0  0
    2.3263   -4.4120    0.0000 C   0  0  0  0  0  0  0  0  0  0  0  0
    1.9908   -5.1657    0.0000 O   0  0  0  0  0  0  0  0  0  0  0  0
    3.1468   -4.3258    0.0000 O   0  0  0  0  0  0  0  0  0  0  0  0
    3.6317   -4.9932    0.0000 C   0  0  0  0  0  0  0  0  0  0  0  0
    4.4522   -4.9070    0.0000 C   0  0  0  0  0  0  0  0  0  0  0  0
    4.9372   -5.5744    0.0000 N   0  0  0  0  0  0  0  0  0  0  0  0
    4.6016   -6.3281    0.0000 C   0  0  0  0  0  0  0  0  0  0  0  0
    3.7811   -6.4143    0.0000 C   0  0  0  0  0  0  0  0  0  0  0  0
    3.4456   -7.1680    0.0000 Cl  0  0  0  0  0  0  0  0  0  0  0  0
    3.2962   -5.7469    0.0000 C   0  0  0  0  0  0  0  0  0  0  0  0
    1.4289   -1.6500    0.0000 H   0  0  0  0  0  0  0  0  0  0  0  0
    0.5315   -4.4120    0.0000 H   0  0  0  0  0  0  0  0  0  0  0  0
    4.7878   -4.1533    0.0000 H   0  0  0  0  0  0  0  0  0  0  0  0
    5.0865   -6.9955    0.0000 H   0  0  0  0  0  0  0  0  0  0  0  0
    2.4757   -5.8331    0.0000 H   0  0  0  0  0  0  0  0  0  0  0  0
  1  2  4  0  0  0  0
  2  3  4  0  0  0  0
  3  4  4  0  0  0  0
  4  5  4  0  0  0  0
  1  5  4  0  0  0  0
  3  6  1  0  0  0  0
  6  7  2  0  0  0  0
  6  8  1  0  0  0  0
  8  9  1  0  0  0  0
  9 10  4  0  0  0  0
 10 11  4  0  0  0  0
 11 12  4  0  0  0  0
 12 13  4  0  0  0  0
 13 14  1  0  0  0  0
 13 15  4  0  0  0  0
  9 15  4  0  0  0  0
  1 16  1  0  0  0  0
  4 17  1  0  0  0  0
 10 18  1  0  0  0  0
 12 19  1  0  0  0  0
 15 20  1  0  0  0  0
M  END
> <Compound_name>
50

> <Standard Type>
IC50

> <Standard Relation>
'='

> <Standard Value>
270.0

> <Standard Units>
nM

> <Outcome>
Active

> <InChIKey>
CSEAAOWXHPFATP-UHFFFAOYSA-N

> <Molecule ChEMBL ID>
CHEMBL222628

$$$$

  Mrv1817 04132013512D          

 82 83  0  0  0  0            999 V2000
    3.9666   -5.2797    0.0000 N   0  0  0  0  0  0  0  0  0  0  0  0
    3.3722   -5.8517    0.0000 C   0  0  0  0  0  0  0  0  0  0  0  0
    3.5703   -6.6526    0.0000 O   0  0  0  0  0  0  0  0  0  0  0  0
    2.5795   -5.6229    0.0000 C   0  0  0  0  0  0  0  0  0  0  0  0
    2.2987   -4.8471    0.0000 N   0  0  0  0  0  0  0  0  0  0  0  0
    1.4742   -4.8745    0.0000 O   0  0  0  0  0  0  0  0  0  0  0  0
    1.2454   -5.6671    0.0000 C   0  0  0  0  0  0  0  0  0  0  0  0
    1.9285   -6.1296    0.0000 C   0  0  0  0  0  0  0  0  0  0  0  0
    0.4696   -5.9479    0.0000 C   0  0  0  0  0  0  0  0  0  0  0  0
    4.7593   -5.5085    0.0000 C   0  0  0  0  0  0  0  0  0  0  0  0
    5.3538   -4.9364    0.0000 C   0  0  0  0  0  0  0  0  0  0  0  0
    5.1556   -4.1356    0.0000 O   0  0  0  0  0  0  0  0  0  0  0  0
    6.1464   -5.1653    0.0000 C   0  0  0  0  0  0  0  0  0  0  0  0
    6.7409   -4.5932    0.0000 C   0  0  0  0  0  0  0  0  0  0  0  0
    7.5335   -4.8220    0.0000 C   0  0  0  0  0  0  0  0  0  0  0  0
    7.7317   -5.6229    0.0000 O   0  0  0  0  0  0  0  0  0  0  0  0
    8.1280   -4.2500    0.0000 N   0  0  0  0  0  0  0  0  0  0  0  0
    8.9206   -4.4788    0.0000 C   0  0  0  0  0  0  0  0  0  0  0  0
    9.5151   -3.9068    0.0000 C   0  0  0  0  0  0  0  0  0  0  0  0
    9.3169   -3.1059    0.0000 C   0  0  0  0  0  0  0  0  0  0  0  0
    8.5243   -2.8771    0.0000 C   0  0  0  0  0  0  0  0  0  0  0  0
    7.9298   -3.4492    0.0000 O   0  0  0  0  0  0  0  0  0  0  0  0
    8.3261   -2.0763    0.0000 O   0  0  0  0  0  0  0  0  0  0  0  0
    8.9206   -1.5042    0.0000 C   0  0  0  0  0  0  0  0  0  0  0  0
    8.7225   -0.7034    0.0000 C   0  0  0  0  0  0  0  0  0  0  0  0
    9.1188   -5.2797    0.0000 C   0  0  0  0  0  0  0  0  0  0  0  0
    9.9114   -5.5085    0.0000 C   0  0  0  0  0  0  0  0  0  0  0  0
   10.5624   -5.0017    0.0000 C   0  0  0  0  0  0  0  0  0  0  0  0
   10.5351   -4.1772    0.0000 O   0  0  0  0  0  0  0  0  0  0  0  0
   11.2455   -5.4643    0.0000 N   0  0  0  0  0  0  0  0  0  0  0  0
   11.0167   -6.2569    0.0000 C   0  0  0  0  0  0  0  0  0  0  0  0
   10.1922   -6.2842    0.0000 C   0  0  0  0  0  0  0  0  0  0  0  0
    6.5427   -3.7924    0.0000 C   0  0  0  0  0  0  0  0  0  0  0  0
    7.1372   -3.2203    0.0000 C   0  0  0  0  0  0  0  0  0  0  0  0
    6.9390   -2.4195    0.0000 C   0  0  0  0  0  0  0  0  0  0  0  0
    7.5335   -1.8475    0.0000 C   0  0  0  0  0  0  0  0  0  0  0  0
    6.1464   -2.1907    0.0000 C   0  0  0  0  0  0  0  0  0  0  0  0
    4.9574   -6.3093    0.0000 C   0  0  0  0  0  0  0  0  0  0  0  0
    5.7501   -6.5381    0.0000 C   0  0  0  0  0  0  0  0  0  0  0  0
    4.3630   -6.8814    0.0000 C   0  0  0  0  0  0  0  0  0  0  0  0
    3.7685   -4.4788    0.0000 H   0  0  0  0  0  0  0  0  0  0  0  0
    1.9558   -6.9542    0.0000 H   0  0  0  0  0  0  0  0  0  0  0  0
    0.1889   -5.1721    0.0000 H   0  0  0  0  0  0  0  0  0  0  0  0
   -0.3061   -6.2287    0.0000 H   0  0  0  0  0  0  0  0  0  0  0  0
    0.7504   -6.7236    0.0000 H   0  0  0  0  0  0  0  0  0  0  0  0
    4.5611   -4.7076    0.0000 H   0  0  0  0  0  0  0  0  0  0  0  0
    5.9640   -5.9699    0.0000 H   0  0  0  0  0  0  0  0  0  0  0  0
    6.6829   -5.7920    0.0000 H   0  0  0  0  0  0  0  0  0  0  0  0
    6.9390   -5.3941    0.0000 H   0  0  0  0  0  0  0  0  0  0  0  0
    7.3353   -4.0212    0.0000 H   0  0  0  0  0  0  0  0  0  0  0  0
    8.7225   -3.6780    0.0000 H   0  0  0  0  0  0  0  0  0  0  0  0
   10.3077   -4.1356    0.0000 H   0  0  0  0  0  0  0  0  0  0  0  0
    9.9114   -2.5339    0.0000 H   0  0  0  0  0  0  0  0  0  0  0  0
    9.5262   -2.0644    0.0000 H   0  0  0  0  0  0  0  0  0  0  0  0
    9.7316   -1.3530    0.0000 H   0  0  0  0  0  0  0  0  0  0  0  0
    9.5233   -0.5052    0.0000 H   0  0  0  0  0  0  0  0  0  0  0  0
    8.5243    0.0975    0.0000 H   0  0  0  0  0  0  0  0  0  0  0  0
    7.9216   -0.9015    0.0000 H   0  0  0  0  0  0  0  0  0  0  0  0
    8.3308   -5.5241    0.0000 H   0  0  0  0  0  0  0  0  0  0  0  0
    8.8443   -6.0577    0.0000 H   0  0  0  0  0  0  0  0  0  0  0  0
    9.3477   -6.1108    0.0000 H   0  0  0  0  0  0  0  0  0  0  0  0
   12.0213   -5.1835    0.0000 H   0  0  0  0  0  0  0  0  0  0  0  0
   11.1585   -7.0696    0.0000 H   0  0  0  0  0  0  0  0  0  0  0  0
   11.7698   -6.5938    0.0000 H   0  0  0  0  0  0  0  0  0  0  0  0
    9.8260   -7.0235    0.0000 H   0  0  0  0  0  0  0  0  0  0  0  0
   10.4285   -7.0746    0.0000 H   0  0  0  0  0  0  0  0  0  0  0  0
    5.9371   -3.2322    0.0000 H   0  0  0  0  0  0  0  0  0  0  0  0
    5.7317   -3.9436    0.0000 H   0  0  0  0  0  0  0  0  0  0  0  0
    6.3445   -2.9915    0.0000 H   0  0  0  0  0  0  0  0  0  0  0  0
    8.1280   -1.2754    0.0000 H   0  0  0  0  0  0  0  0  0  0  0  0
    7.3353   -1.0466    0.0000 H   0  0  0  0  0  0  0  0  0  0  0  0
    6.7409   -1.6186    0.0000 H   0  0  0  0  0  0  0  0  0  0  0  0
    5.9482   -1.3898    0.0000 H   0  0  0  0  0  0  0  0  0  0  0  0
    5.3538   -1.9619    0.0000 H   0  0  0  0  0  0  0  0  0  0  0  0
    5.5519   -2.7627    0.0000 H   0  0  0  0  0  0  0  0  0  0  0  0
    5.5519   -5.7373    0.0000 H   0  0  0  0  0  0  0  0  0  0  0  0
    5.2227   -7.1726    0.0000 H   0  0  0  0  0  0  0  0  0  0  0  0
    6.1199   -7.2756    0.0000 H   0  0  0  0  0  0  0  0  0  0  0  0
    6.5739   -6.4950    0.0000 H   0  0  0  0  0  0  0  0  0  0  0  0
    3.7599   -7.4443    0.0000 H   0  0  0  0  0  0  0  0  0  0  0  0
    4.5367   -7.6879    0.0000 H   0  0  0  0  0  0  0  0  0  0  0  0
    4.1648   -6.0805    0.0000 H   0  0  0  0  0  0  0  0  0  0  0  0
  1  2  1  0  0  0  0
  2  3  2  0  0  0  0
  2  4  1  0  0  0  0
  4  5  4  0  0  0  0
  5  6  4  0  0  0  0
  6  7  4  0  0  0  0
  7  8  4  0  0  0  0
  4  8  4  0  0  0  0
  7  9  1  0  0  0  0
  1 10  1  0  0  0  0
 10 11  1  0  0  0  0
 11 12  2  0  0  0  0
 11 13  1  0  0  0  0
 13 14  1  0  0  0  0
 14 15  1  0  0  0  0
 15 16  2  0  0  0  0
 15 17  1  0  0  0  0
 17 18  1  0  0  0  0
 19 18  1  4  0  0  0
 19 20  2  0  0  0  0
 20 21  1  0  0  0  0
 21 22  2  0  0  0  0
 21 23  1  0  0  0  0
 23 24  1  0  0  0  0
 24 25  1  0  0  0  0
 18 26  1  0  0  0  0
 26 27  1  0  0  0  0
 27 28  1  0  0  0  0
 28 29  2  0  0  0  0
 28 30  1  0  0  0  0
 30 31  1  0  0  0  0
 31 32  1  0  0  0  0
 27 32  1  0  0  0  0
 14 33  1  0  0  0  0
 33 34  1  0  0  0  0
 34 35  2  0  0  0  0
 35 36  1  0  0  0  0
 35 37  1  0  0  0  0
 10 38  1  0  0  0  0
 38 39  1  0  0  0  0
 38 40  1  0  0  0  0
  1 41  1  0  0  0  0
  8 42  1  0  0  0  0
  9 43  1  0  0  0  0
  9 44  1  0  0  0  0
  9 45  1  0  0  0  0
 10 46  1  0  0  0  0
 13 47  1  0  0  0  0
 13 48  1  0  0  0  0
 14 49  1  0  0  0  0
 17 50  1  0  0  0  0
 18 51  1  0  0  0  0
 19 52  1  0  0  0  0
 20 53  1  0  0  0  0
 24 54  1  0  0  0  0
 24 55  1  0  0  0  0
 25 56  1  0  0  0  0
 25 57  1  0  0  0  0
 25 58  1  0  0  0  0
 26 59  1  0  0  0  0
 26 60  1  0  0  0  0
 27 61  1  0  0  0  0
 30 62  1  0  0  0  0
 31 63  1  0  0  0  0
 31 64  1  0  0  0  0
 32 65  1  0  0  0  0
 32 66  1  0  0  0  0
 33 67  1  0  0  0  0
 33 68  1  0  0  0  0
 34 69  1  0  0  0  0
 36 70  1  0  0  0  0
 36 71  1  0  0  0  0
 36 72  1  0  0  0  0
 37 73  1  0  0  0  0
 37 74  1  0  0  0  0
 37 75  1  0  0  0  0
 38 76  1  0  0  0  0
 39 77  1  0  0  0  0
 39 78  1  0  0  0  0
 39 79  1  0  0  0  0
 40 80  1  0  0  0  0
 40 81  1  0  0  0  0
 40 82  1  0  0  0  0
M  END
> <Compound_name>
4

> <Standard Type>
IC50

> <Standard Relation>
'='

> <Standard Value>
70000.0

> <Standard Units>
nM

> <Outcome>
Inactive

> <InChIKey>
CSNQHKJCKPMZCY-UHFFFAOYNA-N

> <Molecule ChEMBL ID>
CHEMBL196635

$$$$

  Mrv1817 04132013512D          

 43 45  0  0  0  0            999 V2000
    0.7477   -2.0625    0.0000 N   0  0  0  0  0  0  0  0  0  0  0  0
    1.4622   -1.6500    0.0000 C   0  0  0  0  0  0  0  0  0  0  0  0
    1.4622   -0.8250    0.0000 O   0  0  0  0  0  0  0  0  0  0  0  0
    2.1766   -2.0625    0.0000 C   0  0  0  0  0  0  0  0  0  0  0  0
    2.8911   -1.6500    0.0000 S   0  0  0  0  0  0  0  0  0  0  0  0
    3.6056   -2.0625    0.0000 C   0  0  0  0  0  0  0  0  0  0  0  0
    4.3201   -1.6500    0.0000 N   0  0  0  0  0  0  0  0  0  0  0  0
    5.0345   -2.0625    0.0000 C   0  0  0  0  0  0  0  0  0  0  0  0
    5.7490   -1.6500    0.0000 O   0  0  0  0  0  0  0  0  0  0  0  0
    5.0345   -2.8875    0.0000 C   0  0  0  0  0  0  0  0  0  0  0  0
    5.7490   -3.3000    0.0000 C   0  0  0  0  0  0  0  0  0  0  0  0
    6.4635   -3.7125    0.0000 N   0  0  0  0  0  0  0  0  0  0  0  0
    4.3201   -3.3000    0.0000 C   0  0  0  0  0  0  0  0  0  0  0  0
    3.6056   -2.8875    0.0000 N   0  0  0  0  0  0  0  0  0  0  0  0
    4.3201   -4.1250    0.0000 C   0  0  0  0  0  0  0  0  0  0  0  0
    5.0345   -4.5375    0.0000 C   0  0  0  0  0  0  0  0  0  0  0  0
    5.0345   -5.3625    0.0000 C   0  0  0  0  0  0  0  0  0  0  0  0
    4.3201   -5.7750    0.0000 C   0  0  0  0  0  0  0  0  0  0  0  0
    3.6056   -5.3625    0.0000 C   0  0  0  0  0  0  0  0  0  0  0  0
    3.6056   -4.5375    0.0000 C   0  0  0  0  0  0  0  0  0  0  0  0
    2.1766   -2.8875    0.0000 C   0  0  0  0  0  0  0  0  0  0  0  0
    0.0332   -1.6500    0.0000 C   0  0  0  0  0  0  0  0  0  0  0  0
   -0.6812   -2.0625    0.0000 C   0  0  0  0  0  0  0  0  0  0  0  0
   -1.3957   -1.6500    0.0000 C   0  0  0  0  0  0  0  0  0  0  0  0
   -1.3957   -0.8250    0.0000 C   0  0  0  0  0  0  0  0  0  0  0  0
   -2.1102   -0.4125    0.0000 Cl  0  0  0  0  0  0  0  0  0  0  0  0
   -0.6812   -0.4125    0.0000 C   0  0  0  0  0  0  0  0  0  0  0  0
    0.0332   -0.8250    0.0000 C   0  0  0  0  0  0  0  0  0  0  0  0
    0.7477   -2.8875    0.0000 H   0  0  0  0  0  0  0  0  0  0  0  0
    2.1766   -1.2375    0.0000 H   0  0  0  0  0  0  0  0  0  0  0  0
    2.8911   -3.3000    0.0000 H   0  0  0  0  0  0  0  0  0  0  0  0
    5.7490   -4.1250    0.0000 H   0  0  0  0  0  0  0  0  0  0  0  0
    5.7490   -5.7750    0.0000 H   0  0  0  0  0  0  0  0  0  0  0  0
    4.3201   -6.6000    0.0000 H   0  0  0  0  0  0  0  0  0  0  0  0
    2.8911   -5.7750    0.0000 H   0  0  0  0  0  0  0  0  0  0  0  0
    2.8911   -4.1250    0.0000 H   0  0  0  0  0  0  0  0  0  0  0  0
    1.4622   -2.4750    0.0000 H   0  0  0  0  0  0  0  0  0  0  0  0
    1.4622   -3.3000    0.0000 H   0  0  0  0  0  0  0  0  0  0  0  0
    2.1766   -3.7125    0.0000 H   0  0  0  0  0  0  0  0  0  0  0  0
   -0.6812   -2.8875    0.0000 H   0  0  0  0  0  0  0  0  0  0  0  0
   -2.1102   -2.0625    0.0000 H   0  0  0  0  0  0  0  0  0  0  0  0
   -0.6812    0.4125    0.0000 H   0  0  0  0  0  0  0  0  0  0  0  0
    0.7477   -0.4125    0.0000 H   0  0  0  0  0  0  0  0  0  0  0  0
  1  2  1  0  0  0  0
  2  3  2  0  0  0  0
  2  4  1  0  0  0  0
  4  5  1  0  0  0  0
  5  6  1  0  0  0  0
  6  7  2  0  0  0  0
  7  8  1  0  0  0  0
  8  9  2  0  0  0  0
  8 10  1  0  0  0  0
 10 11  1  0  0  0  0
 11 12  3  0  0  0  0
 10 13  2  0  0  0  0
 13 14  1  0  0  0  0
  6 14  1  0  0  0  0
 13 15  1  0  0  0  0
 15 16  4  0  0  0  0
 16 17  4  0  0  0  0
 17 18  4  0  0  0  0
 18 19  4  0  0  0  0
 19 20  4  0  0  0  0
 15 20  4  0  0  0  0
  4 21  1  0  0  0  0
  1 22  1  0  0  0  0
 22 23  4  0  0  0  0
 23 24  4  0  0  0  0
 24 25  4  0  0  0  0
 25 26  1  0  0  0  0
 25 27  4  0  0  0  0
 27 28  4  0  0  0  0
 22 28  4  0  0  0  0
  1 29  1  0  0  0  0
  4 30  1  0  0  0  0
 14 31  1  0  0  0  0
 16 32  1  0  0  0  0
 17 33  1  0  0  0  0
 18 34  1  0  0  0  0
 19 35  1  0  0  0  0
 20 36  1  0  0  0  0
 21 37  1  0  0  0  0
 21 38  1  0  0  0  0
 21 39  1  0  0  0  0
 23 40  1  0  0  0  0
 24 41  1  0  0  0  0
 27 42  1  0  0  0  0
 28 43  1  0  0  0  0
M  END
> <Compound_name>
24

> <Standard Type>
IC50

> <Standard Relation>
'='

> <Standard Value>
1.655655757412955E12

> <Standard Units>
nM

> <Outcome>
Inactive

> <InChIKey>
DGNRVGPZXZKQQS-UHFFFAOYNA-N

> <Molecule ChEMBL ID>
CHEMBL210972

$$$$

  Mrv1817 04132013512D          

 82 84  0  0  0  0            999 V2000
   -0.0526   -4.1492    0.0000 N   0  0  0  0  0  0  0  0  0  0  0  0
   -0.6471   -4.7212    0.0000 C   0  0  0  0  0  0  0  0  0  0  0  0
   -0.4490   -5.5221    0.0000 O   0  0  0  0  0  0  0  0  0  0  0  0
   -1.4398   -4.4924    0.0000 C   0  0  0  0  0  0  0  0  0  0  0  0
   -1.7205   -3.7167    0.0000 N   0  0  0  0  0  0  0  0  0  0  0  0
   -2.5451   -3.7440    0.0000 O   0  0  0  0  0  0  0  0  0  0  0  0
   -2.7739   -4.5366    0.0000 C   0  0  0  0  0  0  0  0  0  0  0  0
   -2.0908   -4.9992    0.0000 C   0  0  0  0  0  0  0  0  0  0  0  0
   -3.5496   -4.8174    0.0000 C   0  0  0  0  0  0  0  0  0  0  0  0
    0.7400   -4.3780    0.0000 C   0  0  0  0  0  0  0  0  0  0  0  0
    1.3345   -3.8060    0.0000 C   0  0  0  0  0  0  0  0  0  0  0  0
    1.1363   -3.0051    0.0000 O   0  0  0  0  0  0  0  0  0  0  0  0
    2.1271   -4.0348    0.0000 C   0  0  0  0  0  0  0  0  0  0  0  0
    2.7216   -3.4627    0.0000 C   0  0  0  0  0  0  0  0  0  0  0  0
    3.5142   -3.6915    0.0000 C   0  0  0  0  0  0  0  0  0  0  0  0
    3.7124   -4.4924    0.0000 O   0  0  0  0  0  0  0  0  0  0  0  0
    4.1087   -3.1195    0.0000 N   0  0  0  0  0  0  0  0  0  0  0  0
    4.9013   -3.3483    0.0000 C   0  0  0  0  0  0  0  0  0  0  0  0
    5.4958   -2.7763    0.0000 C   0  0  0  0  0  0  0  0  0  0  0  0
    6.2884   -3.0051    0.0000 C   0  0  0  0  0  0  0  0  0  0  0  0
    6.8829   -2.4331    0.0000 C   0  0  0  0  0  0  0  0  0  0  0  0
    7.6755   -2.6619    0.0000 O   0  0  0  0  0  0  0  0  0  0  0  0
    6.6847   -1.6322    0.0000 O   0  0  0  0  0  0  0  0  0  0  0  0
    7.2792   -1.0602    0.0000 C   0  0  0  0  0  0  0  0  0  0  0  0
    7.0811   -0.2593    0.0000 C   0  0  0  0  0  0  0  0  0  0  0  0
    5.0995   -4.1492    0.0000 C   0  0  0  0  0  0  0  0  0  0  0  0
    5.8921   -4.3780    0.0000 C   0  0  0  0  0  0  0  0  0  0  0  0
    6.1729   -5.1537    0.0000 C   0  0  0  0  0  0  0  0  0  0  0  0
    5.7103   -5.8369    0.0000 O   0  0  0  0  0  0  0  0  0  0  0  0
    6.9974   -5.1264    0.0000 N   0  0  0  0  0  0  0  0  0  0  0  0
    7.2263   -4.3338    0.0000 C   0  0  0  0  0  0  0  0  0  0  0  0
    6.5431   -3.8712    0.0000 C   0  0  0  0  0  0  0  0  0  0  0  0
    2.5234   -2.6619    0.0000 C   0  0  0  0  0  0  0  0  0  0  0  0
    3.1179   -2.0899    0.0000 C   0  0  0  0  0  0  0  0  0  0  0  0
    2.9197   -1.2890    0.0000 C   0  0  0  0  0  0  0  0  0  0  0  0
    3.5142   -0.7170    0.0000 C   0  0  0  0  0  0  0  0  0  0  0  0
    4.3068   -0.9458    0.0000 C   0  0  0  0  0  0  0  0  0  0  0  0
    4.5050   -1.7466    0.0000 C   0  0  0  0  0  0  0  0  0  0  0  0
    3.9105   -2.3187    0.0000 C   0  0  0  0  0  0  0  0  0  0  0  0
    0.9382   -5.1788    0.0000 C   0  0  0  0  0  0  0  0  0  0  0  0
    1.7308   -5.4077    0.0000 C   0  0  0  0  0  0  0  0  0  0  0  0
    0.3437   -5.7509    0.0000 C   0  0  0  0  0  0  0  0  0  0  0  0
   -0.2508   -3.3483    0.0000 H   0  0  0  0  0  0  0  0  0  0  0  0
   -2.0634   -5.8237    0.0000 H   0  0  0  0  0  0  0  0  0  0  0  0
   -3.8304   -4.0416    0.0000 H   0  0  0  0  0  0  0  0  0  0  0  0
   -4.3254   -5.0982    0.0000 H   0  0  0  0  0  0  0  0  0  0  0  0
   -3.2689   -5.5931    0.0000 H   0  0  0  0  0  0  0  0  0  0  0  0
    0.5418   -3.5771    0.0000 H   0  0  0  0  0  0  0  0  0  0  0  0
    1.9448   -4.8394    0.0000 H   0  0  0  0  0  0  0  0  0  0  0  0
    2.6636   -4.6615    0.0000 H   0  0  0  0  0  0  0  0  0  0  0  0
    2.9197   -4.2636    0.0000 H   0  0  0  0  0  0  0  0  0  0  0  0
    3.3161   -2.8907    0.0000 H   0  0  0  0  0  0  0  0  0  0  0  0
    4.7032   -2.5475    0.0000 H   0  0  0  0  0  0  0  0  0  0  0  0
    5.7246   -1.9837    0.0000 H   0  0  0  0  0  0  0  0  0  0  0  0
    7.0858   -3.2167    0.0000 H   0  0  0  0  0  0  0  0  0  0  0  0
    7.8849   -1.6204    0.0000 H   0  0  0  0  0  0  0  0  0  0  0  0
    8.0902   -0.9089    0.0000 H   0  0  0  0  0  0  0  0  0  0  0  0
    7.8819   -0.0612    0.0000 H   0  0  0  0  0  0  0  0  0  0  0  0
    6.8829    0.5415    0.0000 H   0  0  0  0  0  0  0  0  0  0  0  0
    6.2802   -0.4575    0.0000 H   0  0  0  0  0  0  0  0  0  0  0  0
    4.3115   -4.3936    0.0000 H   0  0  0  0  0  0  0  0  0  0  0  0
    4.8250   -4.9272    0.0000 H   0  0  0  0  0  0  0  0  0  0  0  0
    5.7361   -3.5679    0.0000 H   0  0  0  0  0  0  0  0  0  0  0  0
    7.5042   -5.7774    0.0000 H   0  0  0  0  0  0  0  0  0  0  0  0
    8.0430   -4.4501    0.0000 H   0  0  0  0  0  0  0  0  0  0  0  0
    7.7794   -3.7217    0.0000 H   0  0  0  0  0  0  0  0  0  0  0  0
    6.5705   -4.6958    0.0000 H   0  0  0  0  0  0  0  0  0  0  0  0
    7.3599   -3.7547    0.0000 H   0  0  0  0  0  0  0  0  0  0  0  0
    1.9178   -2.1017    0.0000 H   0  0  0  0  0  0  0  0  0  0  0  0
    1.7124   -2.8131    0.0000 H   0  0  0  0  0  0  0  0  0  0  0  0
    2.1271   -1.0602    0.0000 H   0  0  0  0  0  0  0  0  0  0  0  0
    3.3161    0.0839    0.0000 H   0  0  0  0  0  0  0  0  0  0  0  0
    4.9013   -0.3737    0.0000 H   0  0  0  0  0  0  0  0  0  0  0  0
    5.3059   -1.5485    0.0000 H   0  0  0  0  0  0  0  0  0  0  0  0
    3.7124   -1.5178    0.0000 H   0  0  0  0  0  0  0  0  0  0  0  0
    1.5326   -4.6068    0.0000 H   0  0  0  0  0  0  0  0  0  0  0  0
    1.2034   -6.0421    0.0000 H   0  0  0  0  0  0  0  0  0  0  0  0
    2.1006   -6.1451    0.0000 H   0  0  0  0  0  0  0  0  0  0  0  0
    2.5547   -5.3645    0.0000 H   0  0  0  0  0  0  0  0  0  0  0  0
   -0.2594   -6.3138    0.0000 H   0  0  0  0  0  0  0  0  0  0  0  0
    0.5174   -6.5574    0.0000 H   0  0  0  0  0  0  0  0  0  0  0  0
    0.1455   -4.9500    0.0000 H   0  0  0  0  0  0  0  0  0  0  0  0
  1  2  1  0  0  0  0
  2  3  2  0  0  0  0
  2  4  1  0  0  0  0
  4  5  4  0  0  0  0
  5  6  4  0  0  0  0
  6  7  4  0  0  0  0
  7  8  4  0  0  0  0
  4  8  4  0  0  0  0
  7  9  1  0  0  0  0
  1 10  1  0  0  0  0
 10 11  1  0  0  0  0
 11 12  2  0  0  0  0
 11 13  1  0  0  0  0
 13 14  1  0  0  0  0
 14 15  1  0  0  0  0
 15 16  2  0  0  0  0
 15 17  1  0  0  0  0
 17 18  1  0  0  0  0
 19 18  1  4  0  0  0
 19 20  2  0  0  0  0
 20 21  1  0  0  0  0
 21 22  2  0  0  0  0
 21 23  1  0  0  0  0
 23 24  1  0  0  0  0
 24 25  1  0  0  0  0
 18 26  1  0  0  0  0
 26 27  1  0  0  0  0
 27 28  1  0  0  0  0
 28 29  2  0  0  0  0
 28 30  1  0  0  0  0
 30 31  1  0  0  0  0
 31 32  1  0  0  0  0
 27 32  1  0  0  0  0
 14 33  1  0  0  0  0
 33 34  1  0  0  0  0
 34 35  4  0  0  0  0
 35 36  4  0  0  0  0
 36 37  4  0  0  0  0
 37 38  4  0  0  0  0
 38 39  4  0  0  0  0
 34 39  4  0  0  0  0
 10 40  1  0  0  0  0
 40 41  1  0  0  0  0
 40 42  1  0  0  0  0
  1 43  1  0  0  0  0
  8 44  1  0  0  0  0
  9 45  1  0  0  0  0
  9 46  1  0  0  0  0
  9 47  1  0  0  0  0
 10 48  1  0  0  0  0
 13 49  1  0  0  0  0
 13 50  1  0  0  0  0
 14 51  1  0  0  0  0
 17 52  1  0  0  0  0
 18 53  1  0  0  0  0
 19 54  1  0  0  0  0
 20 55  1  0  0  0  0
 24 56  1  0  0  0  0
 24 57  1  0  0  0  0
 25 58  1  0  0  0  0
 25 59  1  0  0  0  0
 25 60  1  0  0  0  0
 26 61  1  0  0  0  0
 26 62  1  0  0  0  0
 27 63  1  0  0  0  0
 30 64  1  0  0  0  0
 31 65  1  0  0  0  0
 31 66  1  0  0  0  0
 32 67  1  0  0  0  0
 32 68  1  0  0  0  0
 33 69  1  0  0  0  0
 33 70  1  0  0  0  0
 35 71  1  0  0  0  0
 36 72  1  0  0  0  0
 37 73  1  0  0  0  0
 38 74  1  0  0  0  0
 39 75  1  0  0  0  0
 40 76  1  0  0  0  0
 41 77  1  0  0  0  0
 41 78  1  0  0  0  0
 41 79  1  0  0  0  0
 42 80  1  0  0  0  0
 42 81  1  0  0  0  0
 42 82  1  0  0  0  0
M  END
> <Compound_name>
3

> <Standard Type>
IC50

> <Standard Relation>
'='

> <Standard Value>
45000.0

> <Standard Units>
nM

> <Outcome>
Inactive

> <InChIKey>
DHTSLDPANDNYNQ-UHFFFAOYNA-N

> <Molecule ChEMBL ID>
CHEMBL194398

$$$$

  Mrv1817 04132013512D          

 28 29  0  0  0  0            999 V2000
    3.2785    1.2370    0.0000 C   0  0  0  0  0  0  0  0  0  0  0  0
    3.9930    0.8245    0.0000 C   0  0  0  0  0  0  0  0  0  0  0  0
    3.9930   -0.0005    0.0000 C   0  0  0  0  0  0  0  0  0  0  0  0
    4.7074   -0.4130    0.0000 I   0  0  0  0  0  0  0  0  0  0  0  0
    3.2785   -0.4130    0.0000 C   0  0  0  0  0  0  0  0  0  0  0  0
    2.5640   -0.0005    0.0000 C   0  0  0  0  0  0  0  0  0  0  0  0
    1.7794   -0.2554    0.0000 C   0  0  0  0  0  0  0  0  0  0  0  0
    1.5245   -1.0400    0.0000 O   0  0  0  0  0  0  0  0  0  0  0  0
    1.2945    0.4120    0.0000 C   0  0  0  0  0  0  0  0  0  0  0  0
    0.4695    0.4120    0.0000 O   0  0  0  0  0  0  0  0  0  0  0  0
    1.7794    1.0795    0.0000 N   0  0  0  0  0  0  0  0  0  0  0  0
    2.5640    0.8245    0.0000 C   0  0  0  0  0  0  0  0  0  0  0  0
    1.5245    1.8641    0.0000 C   0  0  0  0  0  0  0  0  0  0  0  0
    0.7175    2.0356    0.0000 C   0  0  0  0  0  0  0  0  0  0  0  0
    0.4626    2.8202    0.0000 C   0  0  0  0  0  0  0  0  0  0  0  0
   -0.3444    2.9918    0.0000 C   0  0  0  0  0  0  0  0  0  0  0  0
    3.2785    2.0620    0.0000 H   0  0  0  0  0  0  0  0  0  0  0  0
    4.7074    1.2370    0.0000 H   0  0  0  0  0  0  0  0  0  0  0  0
    3.2785   -1.2380    0.0000 H   0  0  0  0  0  0  0  0  0  0  0  0
    2.2929    2.1642    0.0000 H   0  0  0  0  0  0  0  0  0  0  0  0
    1.7426    2.6597    0.0000 H   0  0  0  0  0  0  0  0  0  0  0  0
   -0.0510    1.7355    0.0000 H   0  0  0  0  0  0  0  0  0  0  0  0
    0.4993    1.2400    0.0000 H   0  0  0  0  0  0  0  0  0  0  0  0
    1.2310    3.1204    0.0000 H   0  0  0  0  0  0  0  0  0  0  0  0
    0.6807    3.6159    0.0000 H   0  0  0  0  0  0  0  0  0  0  0  0
   -0.1729    3.7987    0.0000 H   0  0  0  0  0  0  0  0  0  0  0  0
   -1.1514    3.1633    0.0000 H   0  0  0  0  0  0  0  0  0  0  0  0
   -0.5159    2.1848    0.0000 H   0  0  0  0  0  0  0  0  0  0  0  0
  1  2  4  0  0  0  0
  2  3  4  0  0  0  0
  3  4  1  0  0  0  0
  3  5  4  0  0  0  0
  5  6  4  0  0  0  0
  6  7  1  0  0  0  0
  7  8  2  0  0  0  0
  7  9  1  0  0  0  0
  9 10  2  0  0  0  0
  9 11  1  0  0  0  0
 11 12  1  0  0  0  0
  1 12  4  0  0  0  0
  6 12  4  0  0  0  0
 11 13  1  0  0  0  0
 13 14  1  0  0  0  0
 14 15  1  0  0  0  0
 15 16  1  0  0  0  0
  1 17  1  0  0  0  0
  2 18  1  0  0  0  0
  5 19  1  0  0  0  0
 13 20  1  0  0  0  0
 13 21  1  0  0  0  0
 14 22  1  0  0  0  0
 14 23  1  0  0  0  0
 15 24  1  0  0  0  0
 15 25  1  0  0  0  0
 16 26  1  0  0  0  0
 16 27  1  0  0  0  0
 16 28  1  0  0  0  0
M  END
> <Compound_name>
2c

> <Standard Type>
Ki

> <Standard Relation>
'='

> <Standard Value>
66023.11333333333

> <Standard Units>
nM

> <Outcome>
Inactive

> <InChIKey>
DKYBERVCUALHHG-UHFFFAOYSA-N

> <Molecule ChEMBL ID>
CHEMBL209287

$$$$

  Mrv1817 04132013512D          

 44 46  0  0  0  0            999 V2000
    3.0801   -4.6519    0.0000 C   0  0  0  0  0  0  0  0  0  0  0  0
    2.5952   -3.9844    0.0000 C   0  0  0  0  0  0  0  0  0  0  0  0
    2.9308   -3.2308    0.0000 C   0  0  0  0  0  0  0  0  0  0  0  0
    3.7513   -3.1445    0.0000 C   0  0  0  0  0  0  0  0  0  0  0  0
    4.2362   -3.8120    0.0000 C   0  0  0  0  0  0  0  0  0  0  0  0
    3.9006   -4.5656    0.0000 C   0  0  0  0  0  0  0  0  0  0  0  0
    4.3856   -5.2331    0.0000 O   0  0  0  0  0  0  0  0  0  0  0  0
    4.0500   -5.9868    0.0000 C   0  0  0  0  0  0  0  0  0  0  0  0
    4.5349   -6.6542    0.0000 C   0  0  0  0  0  0  0  0  0  0  0  0
    2.4459   -2.5633    0.0000 N   0  0  0  0  0  0  0  0  0  0  0  0
    1.6209   -2.5633    0.0000 C   0  0  0  0  0  0  0  0  0  0  0  0
    1.1359   -3.2308    0.0000 O   0  0  0  0  0  0  0  0  0  0  0  0
    1.3659   -1.7787    0.0000 C   0  0  0  0  0  0  0  0  0  0  0  0
    2.0334   -1.2938    0.0000 C   0  0  0  0  0  0  0  0  0  0  0  0
    2.0334   -0.4688    0.0000 S   0  0  0  0  0  0  0  0  0  0  0  0
    2.7478   -0.0563    0.0000 C   0  0  0  0  0  0  0  0  0  0  0  0
    2.7478    0.7687    0.0000 N   0  0  0  0  0  0  0  0  0  0  0  0
    3.4623    1.1812    0.0000 C   0  0  0  0  0  0  0  0  0  0  0  0
    4.1768    0.7687    0.0000 C   0  0  0  0  0  0  0  0  0  0  0  0
    4.1768   -0.0563    0.0000 C   0  0  0  0  0  0  0  0  0  0  0  0
    3.4623   -0.4688    0.0000 N   0  0  0  0  0  0  0  0  0  0  0  0
    4.8912   -0.4688    0.0000 C   0  0  0  0  0  0  0  0  0  0  0  0
    3.4623    2.0062    0.0000 C   0  0  0  0  0  0  0  0  0  0  0  0
    2.7008   -1.7787    0.0000 C   0  0  0  0  0  0  0  0  0  0  0  0
    3.4854   -1.5238    0.0000 O   0  0  0  0  0  0  0  0  0  0  0  0
    2.7446   -5.4056    0.0000 H   0  0  0  0  0  0  0  0  0  0  0  0
    1.7747   -4.0707    0.0000 H   0  0  0  0  0  0  0  0  0  0  0  0
    4.0868   -2.3909    0.0000 H   0  0  0  0  0  0  0  0  0  0  0  0
    5.0567   -3.7257    0.0000 H   0  0  0  0  0  0  0  0  0  0  0  0
    3.2781   -5.6956    0.0000 H   0  0  0  0  0  0  0  0  0  0  0  0
    3.3555   -6.4320    0.0000 H   0  0  0  0  0  0  0  0  0  0  0  0
    3.8675   -7.1391    0.0000 H   0  0  0  0  0  0  0  0  0  0  0  0
    5.0198   -7.3216    0.0000 H   0  0  0  0  0  0  0  0  0  0  0  0
    5.2024   -6.1693    0.0000 H   0  0  0  0  0  0  0  0  0  0  0  0
    0.7928   -1.1852    0.0000 H   0  0  0  0  0  0  0  0  0  0  0  0
    0.5535   -1.9220    0.0000 H   0  0  0  0  0  0  0  0  0  0  0  0
    2.7684   -0.9192    0.0000 H   0  0  0  0  0  0  0  0  0  0  0  0
    4.8912    1.1812    0.0000 H   0  0  0  0  0  0  0  0  0  0  0  0
    4.4787   -1.1832    0.0000 H   0  0  0  0  0  0  0  0  0  0  0  0
    5.6057   -0.8813    0.0000 H   0  0  0  0  0  0  0  0  0  0  0  0
    5.3037    0.2457    0.0000 H   0  0  0  0  0  0  0  0  0  0  0  0
    4.2873    2.0062    0.0000 H   0  0  0  0  0  0  0  0  0  0  0  0
    3.4623    2.8312    0.0000 H   0  0  0  0  0  0  0  0  0  0  0  0
    2.6373    2.0062    0.0000 H   0  0  0  0  0  0  0  0  0  0  0  0
  1  2  4  0  0  0  0
  2  3  4  0  0  0  0
  3  4  4  0  0  0  0
  4  5  4  0  0  0  0
  5  6  4  0  0  0  0
  1  6  4  0  0  0  0
  6  7  1  0  0  0  0
  7  8  1  0  0  0  0
  8  9  1  0  0  0  0
  3 10  1  0  0  0  0
 10 11  1  0  0  0  0
 11 12  2  0  0  0  0
 11 13  1  0  0  0  0
 13 14  1  0  0  0  0
 14 15  1  0  0  0  0
 15 16  1  0  0  0  0
 16 17  4  0  0  0  0
 17 18  4  0  0  0  0
 18 19  4  0  0  0  0
 19 20  4  0  0  0  0
 20 21  4  0  0  0  0
 16 21  4  0  0  0  0
 20 22  1  0  0  0  0
 18 23  1  0  0  0  0
 14 24  1  0  0  0  0
 10 24  1  0  0  0  0
 24 25  2  0  0  0  0
  1 26  1  0  0  0  0
  2 27  1  0  0  0  0
  4 28  1  0  0  0  0
  5 29  1  0  0  0  0
  8 30  1  0  0  0  0
  8 31  1  0  0  0  0
  9 32  1  0  0  0  0
  9 33  1  0  0  0  0
  9 34  1  0  0  0  0
 13 35  1  0  0  0  0
 13 36  1  0  0  0  0
 14 37  1  0  0  0  0
 19 38  1  0  0  0  0
 22 39  1  0  0  0  0
 22 40  1  0  0  0  0
 22 41  1  0  0  0  0
 23 42  1  0  0  0  0
 23 43  1  0  0  0  0
 23 44  1  0  0  0  0
M  END
> <Compound_name>
22

> <Standard Type>
IC50

> <Standard Relation>
'='

> <Standard Value>
1.655655757412955E12

> <Standard Units>
nM

> <Outcome>
Inactive

> <InChIKey>
DMJQWIMLNPOFCL-UHFFFAOYNA-N

> <Molecule ChEMBL ID>
CHEMBL210145

$$$$

  Mrv1817 04132013512D          

 35 38  0  0  0  0            999 V2000
   -6.2960   -1.0494    0.0000 C   0  0  0  0  0  0  0  0  0  0  0  0
   -6.0411   -0.2648    0.0000 C   0  0  0  0  0  0  0  0  0  0  0  0
   -5.2341   -0.0933    0.0000 C   0  0  0  0  0  0  0  0  0  0  0  0
   -4.6821   -0.7064    0.0000 C   0  0  0  0  0  0  0  0  0  0  0  0
   -3.8751   -0.5349    0.0000 C   0  0  0  0  0  0  0  0  0  0  0  0
   -3.3231   -1.1480    0.0000 C   0  0  0  0  0  0  0  0  0  0  0  0
   -3.5780   -1.9326    0.0000 C   0  0  0  0  0  0  0  0  0  0  0  0
   -4.3850   -2.1041    0.0000 C   0  0  0  0  0  0  0  0  0  0  0  0
   -4.9370   -1.4910    0.0000 C   0  0  0  0  0  0  0  0  0  0  0  0
   -5.7440   -1.6625    0.0000 C   0  0  0  0  0  0  0  0  0  0  0  0
   -2.5161   -0.9764    0.0000 C   0  0  0  0  0  0  0  0  0  0  0  0
   -2.2612   -0.1918    0.0000 N   0  0  0  0  0  0  0  0  0  0  0  0
   -2.7461    0.4756    0.0000 C   0  0  0  0  0  0  0  0  0  0  0  0
   -3.5711    0.4756    0.0000 O   0  0  0  0  0  0  0  0  0  0  0  0
   -2.2612    1.1431    0.0000 C   0  0  0  0  0  0  0  0  0  0  0  0
   -2.5161    1.9277    0.0000 O   0  0  0  0  0  0  0  0  0  0  0  0
   -1.4766    0.8881    0.0000 C   0  0  0  0  0  0  0  0  0  0  0  0
   -0.7621    1.3006    0.0000 C   0  0  0  0  0  0  0  0  0  0  0  0
   -0.0476    0.8881    0.0000 C   0  0  0  0  0  0  0  0  0  0  0  0
    0.6668    1.3006    0.0000 I   0  0  0  0  0  0  0  0  0  0  0  0
   -0.0476    0.0631    0.0000 C   0  0  0  0  0  0  0  0  0  0  0  0
   -0.7621   -0.3494    0.0000 C   0  0  0  0  0  0  0  0  0  0  0  0
   -1.4766    0.0631    0.0000 C   0  0  0  0  0  0  0  0  0  0  0  0
   -7.1030   -1.2210    0.0000 H   0  0  0  0  0  0  0  0  0  0  0  0
   -6.5931    0.3483    0.0000 H   0  0  0  0  0  0  0  0  0  0  0  0
   -4.9792    0.6913    0.0000 H   0  0  0  0  0  0  0  0  0  0  0  0
   -3.6202    0.2498    0.0000 H   0  0  0  0  0  0  0  0  0  0  0  0
   -3.0260   -2.5457    0.0000 H   0  0  0  0  0  0  0  0  0  0  0  0
   -4.6399   -2.8887    0.0000 H   0  0  0  0  0  0  0  0  0  0  0  0
   -5.9990   -2.4472    0.0000 H   0  0  0  0  0  0  0  0  0  0  0  0
   -2.2980   -1.7721    0.0000 H   0  0  0  0  0  0  0  0  0  0  0  0
   -1.7477   -1.2766    0.0000 H   0  0  0  0  0  0  0  0  0  0  0  0
   -0.7621    2.1256    0.0000 H   0  0  0  0  0  0  0  0  0  0  0  0
    0.6668   -0.3494    0.0000 H   0  0  0  0  0  0  0  0  0  0  0  0
   -0.7621   -1.1744    0.0000 H   0  0  0  0  0  0  0  0  0  0  0  0
  1  2  4  0  0  0  0
  2  3  4  0  0  0  0
  3  4  4  0  0  0  0
  4  5  4  0  0  0  0
  5  6  4  0  0  0  0
  6  7  4  0  0  0  0
  7  8  4  0  0  0  0
  8  9  4  0  0  0  0
  4  9  4  0  0  0  0
  9 10  4  0  0  0  0
  1 10  4  0  0  0  0
  6 11  1  0  0  0  0
 11 12  1  0  0  0  0
 12 13  1  0  0  0  0
 13 14  2  0  0  0  0
 13 15  1  0  0  0  0
 15 16  2  0  0  0  0
 15 17  1  0  0  0  0
 17 18  4  0  0  0  0
 18 19  4  0  0  0  0
 19 20  1  0  0  0  0
 19 21  4  0  0  0  0
 21 22  4  0  0  0  0
 22 23  4  0  0  0  0
 12 23  1  0  0  0  0
 17 23  4  0  0  0  0
  1 24  1  0  0  0  0
  2 25  1  0  0  0  0
  3 26  1  0  0  0  0
  5 27  1  0  0  0  0
  7 28  1  0  0  0  0
  8 29  1  0  0  0  0
 10 30  1  0  0  0  0
 11 31  1  0  0  0  0
 11 32  1  0  0  0  0
 18 33  1  0  0  0  0
 21 34  1  0  0  0  0
 22 35  1  0  0  0  0
M  END
> <Compound_name>
2f

> <Standard Type>
Ki

> <Standard Relation>
'='

> <Standard Value>
1098.8266666666666

> <Standard Units>
nM

> <Outcome>
Active

> <InChIKey>
DTZJIZCNNNVZIT-UHFFFAOYSA-N

> <Molecule ChEMBL ID>
CHEMBL383725

$$$$

  Mrv1817 04132013512D          

 21 22  0  0  0  0            999 V2000
    1.4289   -2.4750    0.0000 C   0  0  0  0  0  0  0  0  0  0  0  0
    2.0964   -2.9599    0.0000 O   0  0  0  0  0  0  0  0  0  0  0  0
    1.8414   -3.7445    0.0000 C   0  0  0  0  0  0  0  0  0  0  0  0
    1.0164   -3.7445    0.0000 C   0  0  0  0  0  0  0  0  0  0  0  0
    0.7615   -2.9599    0.0000 C   0  0  0  0  0  0  0  0  0  0  0  0
    2.3263   -4.4120    0.0000 C   0  0  0  0  0  0  0  0  0  0  0  0
    1.9908   -5.1657    0.0000 O   0  0  0  0  0  0  0  0  0  0  0  0
    3.1468   -4.3258    0.0000 O   0  0  0  0  0  0  0  0  0  0  0  0
    3.6317   -4.9932    0.0000 C   0  0  0  0  0  0  0  0  0  0  0  0
    4.4522   -4.9070    0.0000 C   0  0  0  0  0  0  0  0  0  0  0  0
    4.9372   -5.5744    0.0000 N   0  0  0  0  0  0  0  0  0  0  0  0
    4.6016   -6.3281    0.0000 C   0  0  0  0  0  0  0  0  0  0  0  0
    3.7811   -6.4143    0.0000 C   0  0  0  0  0  0  0  0  0  0  0  0
    3.4456   -7.1680    0.0000 Cl  0  0  0  0  0  0  0  0  0  0  0  0
    3.2962   -5.7469    0.0000 C   0  0  0  0  0  0  0  0  0  0  0  0
    1.4289   -1.6500    0.0000 H   0  0  0  0  0  0  0  0  0  0  0  0
    0.5315   -4.4120    0.0000 H   0  0  0  0  0  0  0  0  0  0  0  0
   -0.0231   -2.7050    0.0000 H   0  0  0  0  0  0  0  0  0  0  0  0
    4.7878   -4.1533    0.0000 H   0  0  0  0  0  0  0  0  0  0  0  0
    5.0865   -6.9955    0.0000 H   0  0  0  0  0  0  0  0  0  0  0  0
    2.4757   -5.8331    0.0000 H   0  0  0  0  0  0  0  0  0  0  0  0
  1  2  4  0  0  0  0
  2  3  4  0  0  0  0
  3  4  4  0  0  0  0
  4  5  4  0  0  0  0
  1  5  4  0  0  0  0
  3  6  1  0  0  0  0
  6  7  2  0  0  0  0
  6  8  1  0  0  0  0
  8  9  1  0  0  0  0
  9 10  4  0  0  0  0
 10 11  4  0  0  0  0
 11 12  4  0  0  0  0
 12 13  4  0  0  0  0
 13 14  1  0  0  0  0
 13 15  4  0  0  0  0
  9 15  4  0  0  0  0
  1 16  1  0  0  0  0
  4 17  1  0  0  0  0
  5 18  1  0  0  0  0
 10 19  1  0  0  0  0
 12 20  1  0  0  0  0
 15 21  1  0  0  0  0
M  END
> <Compound_name>
35

> <Standard Type>
IC50

> <Standard Relation>
'='

> <Standard Value>
60.0

> <Standard Units>
nM

> <Outcome>
Active

> <InChIKey>
DWJOEJDGHVXXEB-UHFFFAOYSA-N

> <Molecule ChEMBL ID>
CHEMBL222840

$$$$

  Mrv1817 04132013512D          

 57 60  0  0  0  0            999 V2000
   -3.4565   -2.9561    0.0000 N   0  0  0  0  0  0  0  0  0  0  0  0
   -2.7420   -2.5436    0.0000 C   0  0  0  0  0  0  0  0  0  0  0  0
   -2.7420   -1.7186    0.0000 O   0  0  0  0  0  0  0  0  0  0  0  0
   -2.0276   -2.9561    0.0000 C   0  0  0  0  0  0  0  0  0  0  0  0
   -1.3131   -2.5436    0.0000 S   0  0  0  0  0  0  0  0  0  0  0  0
   -0.5986   -2.9561    0.0000 C   0  0  0  0  0  0  0  0  0  0  0  0
    0.1158   -2.5436    0.0000 N   0  0  0  0  0  0  0  0  0  0  0  0
    0.8303   -2.9561    0.0000 C   0  0  0  0  0  0  0  0  0  0  0  0
    0.8303   -3.7811    0.0000 C   0  0  0  0  0  0  0  0  0  0  0  0
    0.1158   -4.1936    0.0000 C   0  0  0  0  0  0  0  0  0  0  0  0
   -0.5986   -3.7811    0.0000 N   0  0  0  0  0  0  0  0  0  0  0  0
    0.1158   -5.0186    0.0000 C   0  0  0  0  0  0  0  0  0  0  0  0
    0.7833   -5.5035    0.0000 N   0  0  0  0  0  0  0  0  0  0  0  0
    0.5283   -6.2881    0.0000 C   0  0  0  0  0  0  0  0  0  0  0  0
   -0.2967   -6.2881    0.0000 S   0  0  0  0  0  0  0  0  0  0  0  0
   -0.5516   -5.5035    0.0000 C   0  0  0  0  0  0  0  0  0  0  0  0
    1.0133   -6.9555    0.0000 C   0  0  0  0  0  0  0  0  0  0  0  0
    0.6777   -7.7092    0.0000 O   0  0  0  0  0  0  0  0  0  0  0  0
    1.1626   -8.3767    0.0000 C   0  0  0  0  0  0  0  0  0  0  0  0
    1.9831   -8.2904    0.0000 C   0  0  0  0  0  0  0  0  0  0  0  0
    2.4680   -8.9579    0.0000 C   0  0  0  0  0  0  0  0  0  0  0  0
    2.1325   -9.7115    0.0000 C   0  0  0  0  0  0  0  0  0  0  0  0
    1.3120   -9.7978    0.0000 C   0  0  0  0  0  0  0  0  0  0  0  0
    0.8271   -9.1303    0.0000 C   0  0  0  0  0  0  0  0  0  0  0  0
    0.0066   -9.2166    0.0000 Cl  0  0  0  0  0  0  0  0  0  0  0  0
   -4.1710   -2.5436    0.0000 C   0  0  0  0  0  0  0  0  0  0  0  0
   -4.8855   -2.9561    0.0000 C   0  0  0  0  0  0  0  0  0  0  0  0
   -5.5999   -2.5436    0.0000 C   0  0  0  0  0  0  0  0  0  0  0  0
   -5.5999   -1.7186    0.0000 C   0  0  0  0  0  0  0  0  0  0  0  0
   -4.8855   -1.3061    0.0000 C   0  0  0  0  0  0  0  0  0  0  0  0
   -4.1710   -1.7186    0.0000 C   0  0  0  0  0  0  0  0  0  0  0  0
   -6.3144   -1.3061    0.0000 C   0  0  0  0  0  0  0  0  0  0  0  0
   -7.0289   -1.7186    0.0000 C   0  0  0  0  0  0  0  0  0  0  0  0
   -6.3144   -0.4811    0.0000 C   0  0  0  0  0  0  0  0  0  0  0  0
   -3.4565   -3.7811    0.0000 H   0  0  0  0  0  0  0  0  0  0  0  0
   -2.3978   -3.6933    0.0000 H   0  0  0  0  0  0  0  0  0  0  0  0
   -1.6573   -3.6933    0.0000 H   0  0  0  0  0  0  0  0  0  0  0  0
    1.5448   -2.5436    0.0000 H   0  0  0  0  0  0  0  0  0  0  0  0
    1.5448   -4.1936    0.0000 H   0  0  0  0  0  0  0  0  0  0  0  0
   -1.3362   -5.2485    0.0000 H   0  0  0  0  0  0  0  0  0  0  0  0
    1.7852   -7.2467    0.0000 H   0  0  0  0  0  0  0  0  0  0  0  0
    1.7078   -6.5103    0.0000 H   0  0  0  0  0  0  0  0  0  0  0  0
    2.3187   -7.5368    0.0000 H   0  0  0  0  0  0  0  0  0  0  0  0
    3.2885   -8.8716    0.0000 H   0  0  0  0  0  0  0  0  0  0  0  0
    2.6174  -10.3790    0.0000 H   0  0  0  0  0  0  0  0  0  0  0  0
    0.9764  -10.5515    0.0000 H   0  0  0  0  0  0  0  0  0  0  0  0
   -4.8855   -3.7811    0.0000 H   0  0  0  0  0  0  0  0  0  0  0  0
   -6.3144   -2.9561    0.0000 H   0  0  0  0  0  0  0  0  0  0  0  0
   -4.8855   -0.4811    0.0000 H   0  0  0  0  0  0  0  0  0  0  0  0
   -3.4565   -1.3061    0.0000 H   0  0  0  0  0  0  0  0  0  0  0  0
   -6.3144   -2.1311    0.0000 H   0  0  0  0  0  0  0  0  0  0  0  0
   -7.2424   -0.9217    0.0000 H   0  0  0  0  0  0  0  0  0  0  0  0
   -7.8539   -1.7186    0.0000 H   0  0  0  0  0  0  0  0  0  0  0  0
   -7.2424   -2.5155    0.0000 H   0  0  0  0  0  0  0  0  0  0  0  0
   -5.4894   -0.4811    0.0000 H   0  0  0  0  0  0  0  0  0  0  0  0
   -6.3144    0.3439    0.0000 H   0  0  0  0  0  0  0  0  0  0  0  0
   -7.1394   -0.4811    0.0000 H   0  0  0  0  0  0  0  0  0  0  0  0
  1  2  1  0  0  0  0
  2  3  2  0  0  0  0
  2  4  1  0  0  0  0
  4  5  1  0  0  0  0
  5  6  1  0  0  0  0
  6  7  4  0  0  0  0
  7  8  4  0  0  0  0
  8  9  4  0  0  0  0
  9 10  4  0  0  0  0
 10 11  4  0  0  0  0
  6 11  4  0  0  0  0
 10 12  1  0  0  0  0
 12 13  4  0  0  0  0
 13 14  4  0  0  0  0
 14 15  4  0  0  0  0
 15 16  4  0  0  0  0
 12 16  4  0  0  0  0
 14 17  1  0  0  0  0
 17 18  1  0  0  0  0
 18 19  1  0  0  0  0
 19 20  4  0  0  0  0
 20 21  4  0  0  0  0
 21 22  4  0  0  0  0
 22 23  4  0  0  0  0
 23 24  4  0  0  0  0
 19 24  4  0  0  0  0
 24 25  1  0  0  0  0
  1 26  1  0  0  0  0
 26 27  4  0  0  0  0
 27 28  4  0  0  0  0
 28 29  4  0  0  0  0
 29 30  4  0  0  0  0
 30 31  4  0  0  0  0
 26 31  4  0  0  0  0
 29 32  1  0  0  0  0
 32 33  1  0  0  0  0
 32 34  1  0  0  0  0
  1 35  1  0  0  0  0
  4 36  1  0  0  0  0
  4 37  1  0  0  0  0
  8 38  1  0  0  0  0
  9 39  1  0  0  0  0
 16 40  1  0  0  0  0
 17 41  1  0  0  0  0
 17 42  1  0  0  0  0
 20 43  1  0  0  0  0
 21 44  1  0  0  0  0
 22 45  1  0  0  0  0
 23 46  1  0  0  0  0
 27 47  1  0  0  0  0
 28 48  1  0  0  0  0
 30 49  1  0  0  0  0
 31 50  1  0  0  0  0
 32 51  1  0  0  0  0
 33 52  1  0  0  0  0
 33 53  1  0  0  0  0
 33 54  1  0  0  0  0
 34 55  1  0  0  0  0
 34 56  1  0  0  0  0
 34 57  1  0  0  0  0
M  END
> <Compound_name>
17

> <Standard Type>
IC50

> <Standard Relation>
'='

> <Standard Value>
2.44889419684223E12

> <Standard Units>
nM

> <Outcome>
Inactive

> <InChIKey>
FAICNNMEVHYSOP-UHFFFAOYSA-N

> <Molecule ChEMBL ID>
CHEMBL207381

$$$$

  Mrv1817 04132013512D          

 43 45  0  0  0  0            999 V2000
    3.5718    1.1118    0.0000 C   0  0  0  0  0  0  0  0  0  0  0  0
    3.9843    0.3974    0.0000 C   0  0  0  0  0  0  0  0  0  0  0  0
    3.5718   -0.3171    0.0000 C   0  0  0  0  0  0  0  0  0  0  0  0
    3.9843   -1.0316    0.0000 O   0  0  0  0  0  0  0  0  0  0  0  0
    2.7468   -0.3171    0.0000 C   0  0  0  0  0  0  0  0  0  0  0  0
    2.3343   -1.0316    0.0000 O   0  0  0  0  0  0  0  0  0  0  0  0
    2.3343    0.3974    0.0000 C   0  0  0  0  0  0  0  0  0  0  0  0
    2.7468    1.1118    0.0000 C   0  0  0  0  0  0  0  0  0  0  0  0
    2.3343    1.8263    0.0000 C   0  0  0  0  0  0  0  0  0  0  0  0
    1.5093    1.8263    0.0000 C   0  0  0  0  0  0  0  0  0  0  0  0
    1.0968    1.1118    0.0000 C   0  0  0  0  0  0  0  0  0  0  0  0
    1.5093    0.3974    0.0000 C   0  0  0  0  0  0  0  0  0  0  0  0
    1.0968   -0.3171    0.0000 C   0  0  0  0  0  0  0  0  0  0  0  0
    0.2718   -0.3171    0.0000 C   0  0  0  0  0  0  0  0  0  0  0  0
   -0.1407    0.3974    0.0000 C   0  0  0  0  0  0  0  0  0  0  0  0
    0.2718    1.1118    0.0000 C   0  0  0  0  0  0  0  0  0  0  0  0
   -0.4279    1.5490    0.0000 C   0  0  0  0  0  0  0  0  0  0  0  0
    0.2430    1.9363    0.0000 C   0  0  0  0  0  0  0  0  0  0  0  0
    4.8093    0.3974    0.0000 C   0  0  0  0  0  0  0  0  0  0  0  0
    5.2218    1.1118    0.0000 C   0  0  0  0  0  0  0  0  0  0  0  0
    5.2218   -0.3171    0.0000 C   0  0  0  0  0  0  0  0  0  0  0  0
    3.9843    1.8263    0.0000 H   0  0  0  0  0  0  0  0  0  0  0  0
    2.7468    2.5408    0.0000 H   0  0  0  0  0  0  0  0  0  0  0  0
    1.0968    2.5408    0.0000 H   0  0  0  0  0  0  0  0  0  0  0  0
    1.1448   -1.1407    0.0000 H   0  0  0  0  0  0  0  0  0  0  0  0
    1.7861   -0.7705    0.0000 H   0  0  0  0  0  0  0  0  0  0  0  0
   -0.4175   -0.7705    0.0000 H   0  0  0  0  0  0  0  0  0  0  0  0
    0.2238   -1.1407    0.0000 H   0  0  0  0  0  0  0  0  0  0  0  0
   -0.8780    0.7676    0.0000 H   0  0  0  0  0  0  0  0  0  0  0  0
   -0.8780    0.0271    0.0000 H   0  0  0  0  0  0  0  0  0  0  0  0
   -0.3204    2.3670    0.0000 H   0  0  0  0  0  0  0  0  0  0  0  0
   -1.0115    2.1321    0.0000 H   0  0  0  0  0  0  0  0  0  0  0  0
   -1.2457    1.4407    0.0000 H   0  0  0  0  0  0  0  0  0  0  0  0
    0.9549    1.5195    0.0000 H   0  0  0  0  0  0  0  0  0  0  0  0
    0.9761    2.3147    0.0000 H   0  0  0  0  0  0  0  0  0  0  0  0
    0.3156    2.7581    0.0000 H   0  0  0  0  0  0  0  0  0  0  0  0
    4.3968    1.1118    0.0000 H   0  0  0  0  0  0  0  0  0  0  0  0
    5.8051    0.5285    0.0000 H   0  0  0  0  0  0  0  0  0  0  0  0
    5.9363    1.5243    0.0000 H   0  0  0  0  0  0  0  0  0  0  0  0
    5.0083    1.9087    0.0000 H   0  0  0  0  0  0  0  0  0  0  0  0
    4.5073   -0.7296    0.0000 H   0  0  0  0  0  0  0  0  0  0  0  0
    5.6343   -1.0316    0.0000 H   0  0  0  0  0  0  0  0  0  0  0  0
    5.9363    0.0954    0.0000 H   0  0  0  0  0  0  0  0  0  0  0  0
  1  2  2  0  0  0  0
  2  3  1  0  0  0  0
  3  4  2  0  0  0  0
  3  5  1  0  0  0  0
  5  6  2  0  0  0  0
  5  7  1  0  0  0  0
  7  8  4  0  0  0  0
  1  8  1  0  0  0  0
  8  9  4  0  0  0  0
  9 10  4  0  0  0  0
 10 11  4  0  0  0  0
 11 12  4  0  0  0  0
  7 12  4  0  0  0  0
 12 13  1  0  0  0  0
 13 14  1  0  0  0  0
 14 15  1  0  0  0  0
 15 16  1  0  0  0  0
 11 16  1  0  0  0  0
 16 17  1  0  0  0  0
 16 18  1  0  0  0  0
  2 19  1  0  0  0  0
 19 20  1  0  0  0  0
 19 21  1  0  0  0  0
  1 22  1  0  0  0  0
  9 23  1  0  0  0  0
 10 24  1  0  0  0  0
 13 25  1  0  0  0  0
 13 26  1  0  0  0  0
 14 27  1  0  0  0  0
 14 28  1  0  0  0  0
 15 29  1  0  0  0  0
 15 30  1  0  0  0  0
 17 31  1  0  0  0  0
 17 32  1  0  0  0  0
 17 33  1  0  0  0  0
 18 34  1  0  0  0  0
 18 35  1  0  0  0  0
 18 36  1  0  0  0  0
 19 37  1  0  0  0  0
 20 38  1  0  0  0  0
 20 39  1  0  0  0  0
 20 40  1  0  0  0  0
 21 41  1  0  0  0  0
 21 42  1  0  0  0  0
 21 43  1  0  0  0  0
M  END
> <Compound_name>
7

> <Standard Type>
IC50

> <Standard Relation>
'='

> <Standard Value>
42340.0

> <Standard Units>
nM

> <Outcome>
Inactive

> <InChIKey>
FEFAIBOZOKSLJR-UHFFFAOYSA-N

> <Molecule ChEMBL ID>
CHEMBL45830

$$$$

  Mrv1817 04132013512D          

 43 46  0  0  0  0            999 V2000
   -1.2506   -2.1818    0.0000 C   0  0  0  0  0  0  0  0  0  0  0  0
   -0.5362   -1.7693    0.0000 C   0  0  0  0  0  0  0  0  0  0  0  0
    0.0769   -2.3213    0.0000 C   0  0  0  0  0  0  0  0  0  0  0  0
   -0.2586   -3.0750    0.0000 S   0  0  0  0  0  0  0  0  0  0  0  0
   -1.0791   -2.9887    0.0000 C   0  0  0  0  0  0  0  0  0  0  0  0
   -1.6311   -3.6018    0.0000 C   0  0  0  0  0  0  0  0  0  0  0  0
   -1.3762   -4.3865    0.0000 O   0  0  0  0  0  0  0  0  0  0  0  0
   -2.4381   -3.4303    0.0000 N   0  0  0  0  0  0  0  0  0  0  0  0
   -2.9901   -4.0434    0.0000 C   0  0  0  0  0  0  0  0  0  0  0  0
   -3.7971   -3.8719    0.0000 C   0  0  0  0  0  0  0  0  0  0  0  0
   -4.0521   -3.0873    0.0000 C   0  0  0  0  0  0  0  0  0  0  0  0
   -3.5000   -2.4742    0.0000 C   0  0  0  0  0  0  0  0  0  0  0  0
   -2.6930   -2.6457    0.0000 C   0  0  0  0  0  0  0  0  0  0  0  0
    0.8839   -2.1498    0.0000 C   0  0  0  0  0  0  0  0  0  0  0  0
    1.1388   -1.3652    0.0000 N   0  0  0  0  0  0  0  0  0  0  0  0
    0.6539   -0.6977    0.0000 C   0  0  0  0  0  0  0  0  0  0  0  0
   -0.1711   -0.6977    0.0000 O   0  0  0  0  0  0  0  0  0  0  0  0
    1.1388   -0.0303    0.0000 C   0  0  0  0  0  0  0  0  0  0  0  0
    0.8839    0.7543    0.0000 O   0  0  0  0  0  0  0  0  0  0  0  0
    1.9235   -0.2852    0.0000 C   0  0  0  0  0  0  0  0  0  0  0  0
    2.6379    0.1273    0.0000 C   0  0  0  0  0  0  0  0  0  0  0  0
    3.3524   -0.2852    0.0000 C   0  0  0  0  0  0  0  0  0  0  0  0
    4.0669    0.1273    0.0000 I   0  0  0  0  0  0  0  0  0  0  0  0
    3.3524   -1.1102    0.0000 C   0  0  0  0  0  0  0  0  0  0  0  0
    2.6379   -1.5227    0.0000 C   0  0  0  0  0  0  0  0  0  0  0  0
    1.9235   -1.1102    0.0000 C   0  0  0  0  0  0  0  0  0  0  0  0
   -2.0043   -1.8462    0.0000 H   0  0  0  0  0  0  0  0  0  0  0  0
   -0.4499   -0.9488    0.0000 H   0  0  0  0  0  0  0  0  0  0  0  0
   -3.1145   -4.8590    0.0000 H   0  0  0  0  0  0  0  0  0  0  0  0
   -2.4102   -4.6301    0.0000 H   0  0  0  0  0  0  0  0  0  0  0  0
   -4.5656   -4.1720    0.0000 H   0  0  0  0  0  0  0  0  0  0  0  0
   -4.0153   -4.6675    0.0000 H   0  0  0  0  0  0  0  0  0  0  0  0
   -4.6962   -2.5718    0.0000 H   0  0  0  0  0  0  0  0  0  0  0  0
   -4.8502   -3.2961    0.0000 H   0  0  0  0  0  0  0  0  0  0  0  0
   -3.3757   -1.6586    0.0000 H   0  0  0  0  0  0  0  0  0  0  0  0
   -4.0800   -1.8874    0.0000 H   0  0  0  0  0  0  0  0  0  0  0  0
   -1.9246   -2.3456    0.0000 H   0  0  0  0  0  0  0  0  0  0  0  0
   -2.4749   -1.8501    0.0000 H   0  0  0  0  0  0  0  0  0  0  0  0
    1.1021   -2.9454    0.0000 H   0  0  0  0  0  0  0  0  0  0  0  0
    1.6524   -2.4499    0.0000 H   0  0  0  0  0  0  0  0  0  0  0  0
    2.6379    0.9523    0.0000 H   0  0  0  0  0  0  0  0  0  0  0  0
    4.0669   -1.5227    0.0000 H   0  0  0  0  0  0  0  0  0  0  0  0
    2.6379   -2.3477    0.0000 H   0  0  0  0  0  0  0  0  0  0  0  0
  1  2  4  0  0  0  0
  2  3  4  0  0  0  0
  3  4  4  0  0  0  0
  4  5  4  0  0  0  0
  1  5  4  0  0  0  0
  5  6  1  0  0  0  0
  6  7  2  0  0  0  0
  6  8  1  0  0  0  0
  8  9  1  0  0  0  0
  9 10  1  0  0  0  0
 10 11  1  0  0  0  0
 11 12  1  0  0  0  0
 12 13  1  0  0  0  0
  8 13  1  0  0  0  0
  3 14  1  0  0  0  0
 14 15  1  0  0  0  0
 15 16  1  0  0  0  0
 16 17  2  0  0  0  0
 16 18  1  0  0  0  0
 18 19  2  0  0  0  0
 18 20  1  0  0  0  0
 20 21  4  0  0  0  0
 21 22  4  0  0  0  0
 22 23  1  0  0  0  0
 22 24  4  0  0  0  0
 24 25  4  0  0  0  0
 25 26  4  0  0  0  0
 15 26  1  0  0  0  0
 20 26  4  0  0  0  0
  1 27  1  0  0  0  0
  2 28  1  0  0  0  0
  9 29  1  0  0  0  0
  9 30  1  0  0  0  0
 10 31  1  0  0  0  0
 10 32  1  0  0  0  0
 11 33  1  0  0  0  0
 11 34  1  0  0  0  0
 12 35  1  0  0  0  0
 12 36  1  0  0  0  0
 13 37  1  0  0  0  0
 13 38  1  0  0  0  0
 14 39  1  0  0  0  0
 14 40  1  0  0  0  0
 21 41  1  0  0  0  0
 24 42  1  0  0  0  0
 25 43  1  0  0  0  0
M  END
> <Compound_name>
4z

> <Standard Type>
IC50

> <Standard Relation>
'='

> <Standard Value>
17500.0

> <Standard Units>
nM

> <Outcome>
Inactive

> <InChIKey>
FJXCZSNZFQISSC-UHFFFAOYSA-N

> <Molecule ChEMBL ID>
CHEMBL370923

$$$$

  Mrv1817 04132013512D          

 43 45  0  0  0  0            999 V2000
   -0.7145   -1.2379    0.0000 N   0  0  0  0  0  0  0  0  0  0  0  0
    0.0000   -1.6504    0.0000 C   0  0  0  0  0  0  0  0  0  0  0  0
    0.0000   -2.4754    0.0000 O   0  0  0  0  0  0  0  0  0  0  0  0
    0.7145   -1.2379    0.0000 C   0  0  0  0  0  0  0  0  0  0  0  0
    1.4289   -1.6504    0.0000 S   0  0  0  0  0  0  0  0  0  0  0  0
    2.1434   -1.2379    0.0000 C   0  0  0  0  0  0  0  0  0  0  0  0
    2.1434   -0.4129    0.0000 N   0  0  0  0  0  0  0  0  0  0  0  0
    2.8579   -0.0004    0.0000 C   0  0  0  0  0  0  0  0  0  0  0  0
    2.8579    0.8246    0.0000 O   0  0  0  0  0  0  0  0  0  0  0  0
    3.5724   -0.4129    0.0000 C   0  0  0  0  0  0  0  0  0  0  0  0
    4.2868   -0.0004    0.0000 C   0  0  0  0  0  0  0  0  0  0  0  0
    5.0013    0.4121    0.0000 N   0  0  0  0  0  0  0  0  0  0  0  0
    3.5724   -1.2379    0.0000 C   0  0  0  0  0  0  0  0  0  0  0  0
    2.8579   -1.6504    0.0000 N   0  0  0  0  0  0  0  0  0  0  0  0
    4.2868   -1.6504    0.0000 C   0  0  0  0  0  0  0  0  0  0  0  0
    5.0013   -1.2379    0.0000 C   0  0  0  0  0  0  0  0  0  0  0  0
    5.7158   -1.6504    0.0000 C   0  0  0  0  0  0  0  0  0  0  0  0
    5.7158   -2.4754    0.0000 C   0  0  0  0  0  0  0  0  0  0  0  0
    5.0013   -2.8879    0.0000 C   0  0  0  0  0  0  0  0  0  0  0  0
    4.2868   -2.4754    0.0000 C   0  0  0  0  0  0  0  0  0  0  0  0
   -1.4289   -1.6504    0.0000 C   0  0  0  0  0  0  0  0  0  0  0  0
   -1.4289   -2.4754    0.0000 C   0  0  0  0  0  0  0  0  0  0  0  0
   -2.1434   -2.8879    0.0000 C   0  0  0  0  0  0  0  0  0  0  0  0
   -2.8579   -2.4754    0.0000 C   0  0  0  0  0  0  0  0  0  0  0  0
   -2.8579   -1.6504    0.0000 C   0  0  0  0  0  0  0  0  0  0  0  0
   -2.1434   -1.2379    0.0000 C   0  0  0  0  0  0  0  0  0  0  0  0
   -3.5724   -1.2379    0.0000 C   0  0  0  0  0  0  0  0  0  0  0  0
   -4.2868   -0.8254    0.0000 F   0  0  0  0  0  0  0  0  0  0  0  0
   -3.1599   -0.5234    0.0000 F   0  0  0  0  0  0  0  0  0  0  0  0
   -3.9849   -1.9524    0.0000 F   0  0  0  0  0  0  0  0  0  0  0  0
   -0.7145   -0.4129    0.0000 H   0  0  0  0  0  0  0  0  0  0  0  0
    1.0847   -0.5007    0.0000 H   0  0  0  0  0  0  0  0  0  0  0  0
    0.3442   -0.5007    0.0000 H   0  0  0  0  0  0  0  0  0  0  0  0
    2.8579   -2.4754    0.0000 H   0  0  0  0  0  0  0  0  0  0  0  0
    5.0013   -0.4129    0.0000 H   0  0  0  0  0  0  0  0  0  0  0  0
    6.4302   -1.2379    0.0000 H   0  0  0  0  0  0  0  0  0  0  0  0
    6.4302   -2.8879    0.0000 H   0  0  0  0  0  0  0  0  0  0  0  0
    5.0013   -3.7129    0.0000 H   0  0  0  0  0  0  0  0  0  0  0  0
    3.5724   -2.8879    0.0000 H   0  0  0  0  0  0  0  0  0  0  0  0
   -0.7145   -2.8879    0.0000 H   0  0  0  0  0  0  0  0  0  0  0  0
   -2.1434   -3.7129    0.0000 H   0  0  0  0  0  0  0  0  0  0  0  0
   -3.5724   -2.8879    0.0000 H   0  0  0  0  0  0  0  0  0  0  0  0
   -2.1434   -0.4129    0.0000 H   0  0  0  0  0  0  0  0  0  0  0  0
  1  2  1  0  0  0  0
  2  3  2  0  0  0  0
  2  4  1  0  0  0  0
  4  5  1  0  0  0  0
  5  6  1  0  0  0  0
  6  7  2  0  0  0  0
  7  8  1  0  0  0  0
  8  9  2  0  0  0  0
  8 10  1  0  0  0  0
 10 11  1  0  0  0  0
 11 12  3  0  0  0  0
 10 13  2  0  0  0  0
 13 14  1  0  0  0  0
  6 14  1  0  0  0  0
 13 15  1  0  0  0  0
 15 16  4  0  0  0  0
 16 17  4  0  0  0  0
 17 18  4  0  0  0  0
 18 19  4  0  0  0  0
 19 20  4  0  0  0  0
 15 20  4  0  0  0  0
  1 21  1  0  0  0  0
 21 22  4  0  0  0  0
 22 23  4  0  0  0  0
 23 24  4  0  0  0  0
 24 25  4  0  0  0  0
 25 26  4  0  0  0  0
 21 26  4  0  0  0  0
 25 27  1  0  0  0  0
 27 28  1  0  0  0  0
 27 29  1  0  0  0  0
 27 30  1  0  0  0  0
  1 31  1  0  0  0  0
  4 32  1  0  0  0  0
  4 33  1  0  0  0  0
 14 34  1  0  0  0  0
 16 35  1  0  0  0  0
 17 36  1  0  0  0  0
 18 37  1  0  0  0  0
 19 38  1  0  0  0  0
 20 39  1  0  0  0  0
 22 40  1  0  0  0  0
 23 41  1  0  0  0  0
 24 42  1  0  0  0  0
 26 43  1  0  0  0  0
M  END
> <Compound_name>
20

> <Standard Type>
IC50

> <Standard Relation>
'='

> <Standard Value>
2.44889419684223E12

> <Standard Units>
nM

> <Outcome>
Inactive

> <InChIKey>
FNZHACBCLXJSBM-UHFFFAOYSA-N

> <Molecule ChEMBL ID>
CHEMBL377225

$$$$

  Mrv1817 04132013512D          

 36 38  0  0  0  0            999 V2000
    0.8220   -3.7365    0.0000 N   0  0  0  0  0  0  0  0  0  0  0  0
    0.8220   -4.5615    0.0000 C   0  0  0  0  0  0  0  0  0  0  0  0
    1.4894   -5.0464    0.0000 C   0  0  0  0  0  0  0  0  0  0  0  0
    1.2345   -5.8310    0.0000 C   0  0  0  0  0  0  0  0  0  0  0  0
    0.4095   -5.8310    0.0000 N   0  0  0  0  0  0  0  0  0  0  0  0
    0.1545   -5.0464    0.0000 N   0  0  0  0  0  0  0  0  0  0  0  0
   -0.6301   -4.7914    0.0000 C   0  0  0  0  0  0  0  0  0  0  0  0
    1.7194   -6.4984    0.0000 C   0  0  0  0  0  0  0  0  0  0  0  0
    2.2740   -4.7914    0.0000 N   0  0  0  0  0  0  0  0  0  0  0  0
    2.8871   -5.3435    0.0000 O   0  0  0  0  0  0  0  0  0  0  0  0
    2.4456   -3.9845    0.0000 O   0  0  0  0  0  0  0  0  0  0  0  0
    0.1075   -3.3240    0.0000 C   0  0  0  0  0  0  0  0  0  0  0  0
    0.1075   -2.4990    0.0000 C   0  0  0  0  0  0  0  0  0  0  0  0
   -0.5599   -2.0140    0.0000 S   0  0  0  0  0  0  0  0  0  0  0  0
   -0.3050   -1.2294    0.0000 C   0  0  0  0  0  0  0  0  0  0  0  0
    0.5200   -1.2294    0.0000 C   0  0  0  0  0  0  0  0  0  0  0  0
    0.7749   -2.0140    0.0000 C   0  0  0  0  0  0  0  0  0  0  0  0
   -0.7899   -0.5620    0.0000 C   0  0  0  0  0  0  0  0  0  0  0  0
   -1.6149   -0.5620    0.0000 S   0  0  0  0  0  0  0  0  0  0  0  0
   -1.8699    0.2226    0.0000 C   0  0  0  0  0  0  0  0  0  0  0  0
   -1.2024    0.7076    0.0000 C   0  0  0  0  0  0  0  0  0  0  0  0
   -0.5350    0.2226    0.0000 C   0  0  0  0  0  0  0  0  0  0  0  0
    1.5364   -3.3240    0.0000 H   0  0  0  0  0  0  0  0  0  0  0  0
   -0.3751   -4.0068    0.0000 H   0  0  0  0  0  0  0  0  0  0  0  0
   -1.4147   -4.5365    0.0000 H   0  0  0  0  0  0  0  0  0  0  0  0
   -0.8850   -5.5761    0.0000 H   0  0  0  0  0  0  0  0  0  0  0  0
    1.0520   -6.9834    0.0000 H   0  0  0  0  0  0  0  0  0  0  0  0
    2.2043   -7.1659    0.0000 H   0  0  0  0  0  0  0  0  0  0  0  0
    2.3868   -6.0135    0.0000 H   0  0  0  0  0  0  0  0  0  0  0  0
   -0.6788   -3.0741    0.0000 H   0  0  0  0  0  0  0  0  0  0  0  0
    0.8220   -2.9115    0.0000 H   0  0  0  0  0  0  0  0  0  0  0  0
    1.0049   -0.5620    0.0000 H   0  0  0  0  0  0  0  0  0  0  0  0
    1.5861   -1.8637    0.0000 H   0  0  0  0  0  0  0  0  0  0  0  0
   -2.6545    0.4776    0.0000 H   0  0  0  0  0  0  0  0  0  0  0  0
   -1.2024    1.5326    0.0000 H   0  0  0  0  0  0  0  0  0  0  0  0
    0.2496    0.4776    0.0000 H   0  0  0  0  0  0  0  0  0  0  0  0
  1  2  1  0  0  0  0
  2  3  4  0  0  0  0
  3  4  4  0  0  0  0
  4  5  4  0  0  0  0
  5  6  4  0  0  0  0
  2  6  4  0  0  0  0
  6  7  1  0  0  0  0
  4  8  1  0  0  0  0
  3  9  1  0  0  0  0
  9 10  2  0  0  0  0
  9 11  2  0  0  0  0
  1 12  1  0  0  0  0
 12 13  1  0  0  0  0
 13 14  4  0  0  0  0
 14 15  4  0  0  0  0
 15 16  4  0  0  0  0
 16 17  4  0  0  0  0
 13 17  4  0  0  0  0
 15 18  1  0  0  0  0
 18 19  4  0  0  0  0
 19 20  4  0  0  0  0
 20 21  4  0  0  0  0
 21 22  4  0  0  0  0
 18 22  4  0  0  0  0
  1 23  1  0  0  0  0
  7 24  1  0  0  0  0
  7 25  1  0  0  0  0
  7 26  1  0  0  0  0
  8 27  1  0  0  0  0
  8 28  1  0  0  0  0
  8 29  1  0  0  0  0
 12 30  1  0  0  0  0
 12 31  1  0  0  0  0
 16 32  1  0  0  0  0
 17 33  1  0  0  0  0
 20 34  1  0  0  0  0
 21 35  1  0  0  0  0
 22 36  1  0  0  0  0
M  END
> <Compound_name>
22

> <Standard Type>
IC50

> <Standard Relation>
'='

> <Standard Value>
20000.0

> <Standard Units>
nM

> <Outcome>
Inactive

> <InChIKey>
FRQPWTXXDABLQI-UHFFFAOYSA-N

> <Molecule ChEMBL ID>
CHEMBL375130

$$$$

  Mrv1817 04132013512D          

 61 63  0  0  0  0            999 V2000
    0.7511   -2.0668    0.0000 N   0  0  0  0  0  0  0  0  0  0  0  0
    1.4655   -1.6543    0.0000 C   0  0  0  0  0  0  0  0  0  0  0  0
    1.4655   -0.8293    0.0000 O   0  0  0  0  0  0  0  0  0  0  0  0
    2.1800   -2.0668    0.0000 C   0  0  0  0  0  0  0  0  0  0  0  0
    2.8945   -1.6543    0.0000 S   0  0  0  0  0  0  0  0  0  0  0  0
    3.6090   -2.0668    0.0000 C   0  0  0  0  0  0  0  0  0  0  0  0
    4.3234   -1.6543    0.0000 N   0  0  0  0  0  0  0  0  0  0  0  0
    5.0379   -2.0668    0.0000 C   0  0  0  0  0  0  0  0  0  0  0  0
    5.7524   -1.6543    0.0000 O   0  0  0  0  0  0  0  0  0  0  0  0
    5.0379   -2.8918    0.0000 C   0  0  0  0  0  0  0  0  0  0  0  0
    5.7524   -3.3043    0.0000 C   0  0  0  0  0  0  0  0  0  0  0  0
    6.4668   -3.7168    0.0000 N   0  0  0  0  0  0  0  0  0  0  0  0
    4.3234   -3.3043    0.0000 C   0  0  0  0  0  0  0  0  0  0  0  0
    3.6090   -2.8918    0.0000 N   0  0  0  0  0  0  0  0  0  0  0  0
    4.3234   -4.1293    0.0000 C   0  0  0  0  0  0  0  0  0  0  0  0
    5.0379   -4.5418    0.0000 C   0  0  0  0  0  0  0  0  0  0  0  0
    5.0379   -5.3668    0.0000 C   0  0  0  0  0  0  0  0  0  0  0  0
    4.3234   -5.7793    0.0000 C   0  0  0  0  0  0  0  0  0  0  0  0
    3.6090   -5.3668    0.0000 C   0  0  0  0  0  0  0  0  0  0  0  0
    3.6090   -4.5418    0.0000 C   0  0  0  0  0  0  0  0  0  0  0  0
    0.0366   -1.6543    0.0000 C   0  0  0  0  0  0  0  0  0  0  0  0
   -0.6779   -2.0668    0.0000 C   0  0  0  0  0  0  0  0  0  0  0  0
   -1.3923   -1.6543    0.0000 C   0  0  0  0  0  0  0  0  0  0  0  0
   -1.3923   -0.8293    0.0000 C   0  0  0  0  0  0  0  0  0  0  0  0
   -0.6779   -0.4168    0.0000 C   0  0  0  0  0  0  0  0  0  0  0  0
    0.0366   -0.8293    0.0000 C   0  0  0  0  0  0  0  0  0  0  0  0
    0.7511   -0.4168    0.0000 C   0  0  0  0  0  0  0  0  0  0  0  0
   -2.1068   -0.4168    0.0000 C   0  0  0  0  0  0  0  0  0  0  0  0
   -2.8213   -0.8293    0.0000 C   0  0  0  0  0  0  0  0  0  0  0  0
   -3.5357   -0.4168    0.0000 C   0  0  0  0  0  0  0  0  0  0  0  0
   -4.2502   -0.8293    0.0000 C   0  0  0  0  0  0  0  0  0  0  0  0
    0.7511   -2.8918    0.0000 H   0  0  0  0  0  0  0  0  0  0  0  0
    1.8098   -2.8041    0.0000 H   0  0  0  0  0  0  0  0  0  0  0  0
    2.5503   -2.8041    0.0000 H   0  0  0  0  0  0  0  0  0  0  0  0
    2.8945   -3.3043    0.0000 H   0  0  0  0  0  0  0  0  0  0  0  0
    3.6090   -3.7168    0.0000 H   0  0  0  0  0  0  0  0  0  0  0  0
    5.8615   -4.4938    0.0000 H   0  0  0  0  0  0  0  0  0  0  0  0
    5.4912   -3.8525    0.0000 H   0  0  0  0  0  0  0  0  0  0  0  0
    5.4912   -6.0561    0.0000 H   0  0  0  0  0  0  0  0  0  0  0  0
    5.8615   -5.4148    0.0000 H   0  0  0  0  0  0  0  0  0  0  0  0
    3.9532   -6.5166    0.0000 H   0  0  0  0  0  0  0  0  0  0  0  0
    4.6937   -6.5166    0.0000 H   0  0  0  0  0  0  0  0  0  0  0  0
    2.7854   -5.4148    0.0000 H   0  0  0  0  0  0  0  0  0  0  0  0
    3.1556   -6.0561    0.0000 H   0  0  0  0  0  0  0  0  0  0  0  0
    2.8337   -4.2596    0.0000 H   0  0  0  0  0  0  0  0  0  0  0  0
    2.8337   -4.8240    0.0000 H   0  0  0  0  0  0  0  0  0  0  0  0
   -0.6779   -2.8918    0.0000 H   0  0  0  0  0  0  0  0  0  0  0  0
   -2.1068   -2.0668    0.0000 H   0  0  0  0  0  0  0  0  0  0  0  0
   -0.6779    0.4082    0.0000 H   0  0  0  0  0  0  0  0  0  0  0  0
    1.4655   -0.0043    0.0000 H   0  0  0  0  0  0  0  0  0  0  0  0
    0.7511    0.4082    0.0000 H   0  0  0  0  0  0  0  0  0  0  0  0
    0.0366   -0.0043    0.0000 H   0  0  0  0  0  0  0  0  0  0  0  0
   -1.7365    0.3204    0.0000 H   0  0  0  0  0  0  0  0  0  0  0  0
   -2.4771    0.3204    0.0000 H   0  0  0  0  0  0  0  0  0  0  0  0
   -3.1915   -1.5666    0.0000 H   0  0  0  0  0  0  0  0  0  0  0  0
   -2.4510   -1.5666    0.0000 H   0  0  0  0  0  0  0  0  0  0  0  0
   -3.1655    0.3204    0.0000 H   0  0  0  0  0  0  0  0  0  0  0  0
   -3.9060    0.3204    0.0000 H   0  0  0  0  0  0  0  0  0  0  0  0
   -4.6627   -0.1148    0.0000 H   0  0  0  0  0  0  0  0  0  0  0  0
   -4.9647   -1.2418    0.0000 H   0  0  0  0  0  0  0  0  0  0  0  0
   -3.8377   -1.5438    0.0000 H   0  0  0  0  0  0  0  0  0  0  0  0
  1  2  1  0  0  0  0
  2  3  2  0  0  0  0
  2  4  1  0  0  0  0
  4  5  1  0  0  0  0
  5  6  1  0  0  0  0
  6  7  2  0  0  0  0
  7  8  1  0  0  0  0
  8  9  2  0  0  0  0
  8 10  1  0  0  0  0
 10 11  1  0  0  0  0
 11 12  3  0  0  0  0
 10 13  2  0  0  0  0
 13 14  1  0  0  0  0
  6 14  1  0  0  0  0
 13 15  1  0  0  0  0
 15 16  1  0  0  0  0
 16 17  1  0  0  0  0
 17 18  1  0  0  0  0
 18 19  1  0  0  0  0
 19 20  1  0  0  0  0
 15 20  1  0  0  0  0
  1 21  1  0  0  0  0
 21 22  4  0  0  0  0
 22 23  4  0  0  0  0
 23 24  4  0  0  0  0
 24 25  4  0  0  0  0
 25 26  4  0  0  0  0
 21 26  4  0  0  0  0
 26 27  1  0  0  0  0
 24 28  1  0  0  0  0
 28 29  1  0  0  0  0
 29 30  1  0  0  0  0
 30 31  1  0  0  0  0
  1 32  1  0  0  0  0
  4 33  1  0  0  0  0
  4 34  1  0  0  0  0
 14 35  1  0  0  0  0
 15 36  1  0  0  0  0
 16 37  1  0  0  0  0
 16 38  1  0  0  0  0
 17 39  1  0  0  0  0
 17 40  1  0  0  0  0
 18 41  1  0  0  0  0
 18 42  1  0  0  0  0
 19 43  1  0  0  0  0
 19 44  1  0  0  0  0
 20 45  1  0  0  0  0
 20 46  1  0  0  0  0
 22 47  1  0  0  0  0
 23 48  1  0  0  0  0
 25 49  1  0  0  0  0
 27 50  1  0  0  0  0
 27 51  1  0  0  0  0
 27 52  1  0  0  0  0
 28 53  1  0  0  0  0
 28 54  1  0  0  0  0
 29 55  1  0  0  0  0
 29 56  1  0  0  0  0
 30 57  1  0  0  0  0
 30 58  1  0  0  0  0
 31 59  1  0  0  0  0
 31 60  1  0  0  0  0
 31 61  1  0  0  0  0
M  END
> <Compound_name>
19

> <Standard Type>
IC50

> <Standard Relation>
'='

> <Standard Value>
2.44889419684223E12

> <Standard Units>
nM

> <Outcome>
Inactive

> <InChIKey>
GBDKYZQJONYDPW-UHFFFAOYSA-N

> <Molecule ChEMBL ID>
CHEMBL210823

$$$$

  Mrv1817 04132013512D          

 33 35  0  0  0  0            999 V2000
    4.0587    3.1745    0.0000 N   0  0  0  0  0  0  0  0  0  0  0  0
    4.0587    2.3495    0.0000 C   0  0  0  0  0  0  0  0  0  0  0  0
    4.7731    1.9370    0.0000 O   0  0  0  0  0  0  0  0  0  0  0  0
    3.3442    1.9370    0.0000 C   0  0  0  0  0  0  0  0  0  0  0  0
    3.3442    1.1120    0.0000 C   0  0  0  0  0  0  0  0  0  0  0  0
    2.6297    0.6995    0.0000 C   0  0  0  0  0  0  0  0  0  0  0  0
    1.9153    1.1120    0.0000 C   0  0  0  0  0  0  0  0  0  0  0  0
    1.1306    0.8571    0.0000 N   0  0  0  0  0  0  0  0  0  0  0  0
    0.6457    1.5245    0.0000 C   0  0  0  0  0  0  0  0  0  0  0  0
   -0.1793    1.5245    0.0000 O   0  0  0  0  0  0  0  0  0  0  0  0
    1.1306    2.1920    0.0000 C   0  0  0  0  0  0  0  0  0  0  0  0
    0.8757    2.9766    0.0000 O   0  0  0  0  0  0  0  0  0  0  0  0
    1.9153    1.9370    0.0000 C   0  0  0  0  0  0  0  0  0  0  0  0
    2.6297    2.3495    0.0000 C   0  0  0  0  0  0  0  0  0  0  0  0
    0.8757    0.0725    0.0000 C   0  0  0  0  0  0  0  0  0  0  0  0
    0.0687   -0.0990    0.0000 C   0  0  0  0  0  0  0  0  0  0  0  0
   -0.1862   -0.8837    0.0000 C   0  0  0  0  0  0  0  0  0  0  0  0
   -0.9932   -1.0552    0.0000 C   0  0  0  0  0  0  0  0  0  0  0  0
   -1.5452   -0.4421    0.0000 C   0  0  0  0  0  0  0  0  0  0  0  0
   -1.2903    0.3425    0.0000 C   0  0  0  0  0  0  0  0  0  0  0  0
   -0.4833    0.5140    0.0000 C   0  0  0  0  0  0  0  0  0  0  0  0
    4.7731    3.5870    0.0000 H   0  0  0  0  0  0  0  0  0  0  0  0
    3.3442    3.5870    0.0000 H   0  0  0  0  0  0  0  0  0  0  0  0
    4.0587    0.6995    0.0000 H   0  0  0  0  0  0  0  0  0  0  0  0
    2.6297   -0.1255    0.0000 H   0  0  0  0  0  0  0  0  0  0  0  0
    2.6297    3.1745    0.0000 H   0  0  0  0  0  0  0  0  0  0  0  0
    1.0939   -0.7232    0.0000 H   0  0  0  0  0  0  0  0  0  0  0  0
    1.6442   -0.2277    0.0000 H   0  0  0  0  0  0  0  0  0  0  0  0
    0.3658   -1.4968    0.0000 H   0  0  0  0  0  0  0  0  0  0  0  0
   -1.2481   -1.8398    0.0000 H   0  0  0  0  0  0  0  0  0  0  0  0
   -2.3522   -0.6136    0.0000 H   0  0  0  0  0  0  0  0  0  0  0  0
   -1.8423    0.9556    0.0000 H   0  0  0  0  0  0  0  0  0  0  0  0
   -0.2284    1.2987    0.0000 H   0  0  0  0  0  0  0  0  0  0  0  0
  1  2  1  0  0  0  0
  2  3  2  0  0  0  0
  2  4  1  0  0  0  0
  4  5  4  0  0  0  0
  5  6  4  0  0  0  0
  6  7  4  0  0  0  0
  7  8  1  0  0  0  0
  8  9  1  0  0  0  0
  9 10  2  0  0  0  0
  9 11  1  0  0  0  0
 11 12  2  0  0  0  0
 11 13  1  0  0  0  0
  7 13  4  0  0  0  0
 13 14  4  0  0  0  0
  4 14  4  0  0  0  0
  8 15  1  0  0  0  0
 15 16  1  0  0  0  0
 16 17  4  0  0  0  0
 17 18  4  0  0  0  0
 18 19  4  0  0  0  0
 19 20  4  0  0  0  0
 20 21  4  0  0  0  0
 16 21  4  0  0  0  0
  1 22  1  0  0  0  0
  1 23  1  0  0  0  0
  5 24  1  0  0  0  0
  6 25  1  0  0  0  0
 14 26  1  0  0  0  0
 15 27  1  0  0  0  0
 15 28  1  0  0  0  0
 17 29  1  0  0  0  0
 18 30  1  0  0  0  0
 19 31  1  0  0  0  0
 20 32  1  0  0  0  0
 21 33  1  0  0  0  0
M  END
> <Compound_name>
5d

> <Standard Type>
Ki

> <Standard Relation>
'='

> <Standard Value>
12696.416666666664

> <Standard Units>
nM

> <Outcome>
Inactive

> <InChIKey>
GNHGMLHHGVQGSW-UHFFFAOYSA-N

> <Molecule ChEMBL ID>
CHEMBL348660

$$$$

  Mrv1817 04132013512D          

 42 45  0  0  0  0            999 V2000
    2.5800   -3.1756    0.0000 C   0  0  0  0  0  0  0  0  0  0  0  0
    1.7679   -3.3208    0.0000 C   0  0  0  0  0  0  0  0  0  0  0  0
    1.2361   -2.6901    0.0000 C   0  0  0  0  0  0  0  0  0  0  0  0
    1.5164   -1.9142    0.0000 C   0  0  0  0  0  0  0  0  0  0  0  0
    2.3285   -1.7690    0.0000 C   0  0  0  0  0  0  0  0  0  0  0  0
    2.6088   -0.9930    0.0000 C   0  0  0  0  0  0  0  0  0  0  0  0
    2.0770   -0.3623    0.0000 O   0  0  0  0  0  0  0  0  0  0  0  0
    3.4209   -0.8478    0.0000 C   0  0  0  0  0  0  0  0  0  0  0  0
    3.7012   -0.0719    0.0000 O   0  0  0  0  0  0  0  0  0  0  0  0
    3.9528   -1.4785    0.0000 C   0  0  0  0  0  0  0  0  0  0  0  0
    3.6725   -2.2545    0.0000 C   0  0  0  0  0  0  0  0  0  0  0  0
    4.3238   -2.7608    0.0000 O   0  0  0  0  0  0  0  0  0  0  0  0
    5.0066   -2.2978    0.0000 C   0  0  0  0  0  0  0  0  0  0  0  0
    4.7773   -1.5053    0.0000 C   0  0  0  0  0  0  0  0  0  0  0  0
    5.2837   -0.8540    0.0000 C   0  0  0  0  0  0  0  0  0  0  0  0
    2.8603   -2.3997    0.0000 C   0  0  0  0  0  0  0  0  0  0  0  0
    0.9846   -1.2835    0.0000 C   0  0  0  0  0  0  0  0  0  0  0  0
    0.1725   -1.4287    0.0000 C   0  0  0  0  0  0  0  0  0  0  0  0
   -0.1078   -2.2046    0.0000 C   0  0  0  0  0  0  0  0  0  0  0  0
    0.4240   -2.8353    0.0000 C   0  0  0  0  0  0  0  0  0  0  0  0
   -0.1878   -3.3888    0.0000 C   0  0  0  0  0  0  0  0  0  0  0  0
    0.5408   -3.6520    0.0000 C   0  0  0  0  0  0  0  0  0  0  0  0
    3.1119   -3.8063    0.0000 H   0  0  0  0  0  0  0  0  0  0  0  0
    1.4876   -4.0967    0.0000 H   0  0  0  0  0  0  0  0  0  0  0  0
    5.5601   -2.9096    0.0000 H   0  0  0  0  0  0  0  0  0  0  0  0
    5.8233   -2.1811    0.0000 H   0  0  0  0  0  0  0  0  0  0  0  0
    4.4269   -0.7585    0.0000 H   0  0  0  0  0  0  0  0  0  0  0  0
    5.7860   -1.5084    0.0000 H   0  0  0  0  0  0  0  0  0  0  0  0
    6.0437   -0.5331    0.0000 H   0  0  0  0  0  0  0  0  0  0  0  0
    5.1651   -0.0376    0.0000 H   0  0  0  0  0  0  0  0  0  0  0  0
    1.5833   -0.7159    0.0000 H   0  0  0  0  0  0  0  0  0  0  0  0
    0.8868   -0.4643    0.0000 H   0  0  0  0  0  0  0  0  0  0  0  0
   -0.0197   -0.6264    0.0000 H   0  0  0  0  0  0  0  0  0  0  0  0
   -0.5859   -1.1038    0.0000 H   0  0  0  0  0  0  0  0  0  0  0  0
   -0.8987   -1.9699    0.0000 H   0  0  0  0  0  0  0  0  0  0  0  0
   -0.7684   -2.6989    0.0000 H   0  0  0  0  0  0  0  0  0  0  0  0
   -1.0119   -3.4262    0.0000 H   0  0  0  0  0  0  0  0  0  0  0  0
   -0.6597   -4.0655    0.0000 H   0  0  0  0  0  0  0  0  0  0  0  0
    0.0620   -4.1751    0.0000 H   0  0  0  0  0  0  0  0  0  0  0  0
    0.7569   -4.4482    0.0000 H   0  0  0  0  0  0  0  0  0  0  0  0
    1.3290   -3.8955    0.0000 H   0  0  0  0  0  0  0  0  0  0  0  0
    1.1682   -3.1164    0.0000 H   0  0  0  0  0  0  0  0  0  0  0  0
  1  2  4  0  0  0  0
  2  3  4  0  0  0  0
  3  4  4  0  0  0  0
  4  5  4  0  0  0  0
  5  6  1  0  0  0  0
  6  7  2  0  0  0  0
  6  8  1  0  0  0  0
  8  9  2  0  0  0  0
  8 10  1  0  0  0  0
 10 11  2  0  0  0  0
 11 12  1  0  0  0  0
 12 13  1  0  0  0  0
 13 14  1  0  0  0  0
 10 14  1  0  0  0  0
 14 15  1  0  0  0  0
 11 16  1  0  0  0  0
  1 16  4  0  0  0  0
  5 16  4  0  0  0  0
  4 17  1  0  0  0  0
 17 18  1  0  0  0  0
 18 19  1  0  0  0  0
 19 20  1  0  0  0  0
  3 20  1  0  0  0  0
 20 21  1  0  0  0  0
 20 22  1  0  0  0  0
  1 23  1  0  0  0  0
  2 24  1  0  0  0  0
 13 25  1  0  0  0  0
 13 26  1  0  0  0  0
 14 27  1  0  0  0  0
 15 28  1  0  0  0  0
 15 29  1  0  0  0  0
 15 30  1  0  0  0  0
 17 31  1  0  0  0  0
 17 32  1  0  0  0  0
 18 33  1  0  0  0  0
 18 34  1  0  0  0  0
 19 35  1  0  0  0  0
 19 36  1  0  0  0  0
 21 37  1  0  0  0  0
 21 38  1  0  0  0  0
 21 39  1  0  0  0  0
 22 40  1  0  0  0  0
 22 41  1  0  0  0  0
 22 42  1  0  0  0  0
M  END
> <Compound_name>
4; SID521176

> <Standard Type>
Ki

> <Standard Relation>
'='

> <Standard Value>
66840.0

> <Standard Units>
nM

> <Outcome>
Active

> <InChIKey>
GVKKJJOMQCNPGB-UHFFFAOYNA-N

> <Molecule ChEMBL ID>
CHEMBL187460

$$$$

  Mrv1817 04132013512D          

 29 31  0  0  0  0            999 V2000
   -1.5463   -2.6627    0.0000 C   0  0  0  0  0  0  0  0  0  0  0  0
   -1.2914   -1.8781    0.0000 C   0  0  0  0  0  0  0  0  0  0  0  0
   -0.4844   -1.7066    0.0000 C   0  0  0  0  0  0  0  0  0  0  0  0
    0.0676   -2.3197    0.0000 C   0  0  0  0  0  0  0  0  0  0  0  0
   -0.1873   -3.1043    0.0000 C   0  0  0  0  0  0  0  0  0  0  0  0
   -0.9943   -3.2758    0.0000 C   0  0  0  0  0  0  0  0  0  0  0  0
    0.8746   -2.1481    0.0000 C   0  0  0  0  0  0  0  0  0  0  0  0
    1.1295   -1.3635    0.0000 N   0  0  0  0  0  0  0  0  0  0  0  0
    0.6446   -0.6961    0.0000 C   0  0  0  0  0  0  0  0  0  0  0  0
   -0.1804   -0.6961    0.0000 O   0  0  0  0  0  0  0  0  0  0  0  0
    1.1295   -0.0286    0.0000 C   0  0  0  0  0  0  0  0  0  0  0  0
    0.8746    0.7560    0.0000 O   0  0  0  0  0  0  0  0  0  0  0  0
    1.9141   -0.2836    0.0000 C   0  0  0  0  0  0  0  0  0  0  0  0
    2.6286    0.1289    0.0000 C   0  0  0  0  0  0  0  0  0  0  0  0
    3.3431   -0.2836    0.0000 C   0  0  0  0  0  0  0  0  0  0  0  0
    4.0576    0.1289    0.0000 I   0  0  0  0  0  0  0  0  0  0  0  0
    3.3431   -1.1086    0.0000 C   0  0  0  0  0  0  0  0  0  0  0  0
    2.6286   -1.5211    0.0000 C   0  0  0  0  0  0  0  0  0  0  0  0
    1.9141   -1.1086    0.0000 C   0  0  0  0  0  0  0  0  0  0  0  0
   -2.3533   -2.8343    0.0000 H   0  0  0  0  0  0  0  0  0  0  0  0
   -1.8434   -1.2650    0.0000 H   0  0  0  0  0  0  0  0  0  0  0  0
   -0.2295   -0.9220    0.0000 H   0  0  0  0  0  0  0  0  0  0  0  0
    0.3647   -3.7174    0.0000 H   0  0  0  0  0  0  0  0  0  0  0  0
   -1.2492   -4.0604    0.0000 H   0  0  0  0  0  0  0  0  0  0  0  0
    1.0927   -2.9438    0.0000 H   0  0  0  0  0  0  0  0  0  0  0  0
    1.6431   -2.4483    0.0000 H   0  0  0  0  0  0  0  0  0  0  0  0
    2.6286    0.9539    0.0000 H   0  0  0  0  0  0  0  0  0  0  0  0
    4.0576   -1.5211    0.0000 H   0  0  0  0  0  0  0  0  0  0  0  0
    2.6286   -2.3461    0.0000 H   0  0  0  0  0  0  0  0  0  0  0  0
  1  2  4  0  0  0  0
  2  3  4  0  0  0  0
  3  4  4  0  0  0  0
  4  5  4  0  0  0  0
  5  6  4  0  0  0  0
  1  6  4  0  0  0  0
  4  7  1  0  0  0  0
  7  8  1  0  0  0  0
  8  9  1  0  0  0  0
  9 10  2  0  0  0  0
  9 11  1  0  0  0  0
 11 12  2  0  0  0  0
 11 13  1  0  0  0  0
 13 14  4  0  0  0  0
 14 15  4  0  0  0  0
 15 16  1  0  0  0  0
 15 17  4  0  0  0  0
 17 18  4  0  0  0  0
 18 19  4  0  0  0  0
  8 19  1  0  0  0  0
 13 19  4  0  0  0  0
  1 20  1  0  0  0  0
  2 21  1  0  0  0  0
  3 22  1  0  0  0  0
  5 23  1  0  0  0  0
  6 24  1  0  0  0  0
  7 25  1  0  0  0  0
  7 26  1  0  0  0  0
 14 27  1  0  0  0  0
 17 28  1  0  0  0  0
 18 29  1  0  0  0  0
M  END
> <Compound_name>
2d

> <Standard Type>
Ki

> <Standard Relation>
'='

> <Standard Value>
50039.57333333333

> <Standard Units>
nM

> <Outcome>
Inactive

> <InChIKey>
GXSCFBFBNQZZJL-UHFFFAOYSA-N

> <Molecule ChEMBL ID>
CHEMBL118596

$$$$

  Mrv1817 04132013512D          

 35 38  0  0  0  0            999 V2000
    2.3452   -1.4671    0.0000 C   0  0  0  0  0  0  0  0  0  0  0  0
    2.0649   -0.6911    0.0000 C   0  0  0  0  0  0  0  0  0  0  0  0
    2.5967   -0.0604    0.0000 C   0  0  0  0  0  0  0  0  0  0  0  0
    3.4088   -0.2056    0.0000 C   0  0  0  0  0  0  0  0  0  0  0  0
    3.9406    0.4251    0.0000 C   0  0  0  0  0  0  0  0  0  0  0  0
    4.7528    0.2799    0.0000 C   0  0  0  0  0  0  0  0  0  0  0  0
    5.0331   -0.4961    0.0000 C   0  0  0  0  0  0  0  0  0  0  0  0
    5.8452   -0.6413    0.0000 C   0  0  0  0  0  0  0  0  0  0  0  0
    6.1255   -1.4172    0.0000 C   0  0  0  0  0  0  0  0  0  0  0  0
    5.5937   -2.0479    0.0000 C   0  0  0  0  0  0  0  0  0  0  0  0
    5.8740   -2.8238    0.0000 O   0  0  0  0  0  0  0  0  0  0  0  0
    4.7815   -1.9027    0.0000 C   0  0  0  0  0  0  0  0  0  0  0  0
    4.2497   -2.5334    0.0000 O   0  0  0  0  0  0  0  0  0  0  0  0
    4.5012   -1.1268    0.0000 C   0  0  0  0  0  0  0  0  0  0  0  0
    3.6891   -0.9816    0.0000 C   0  0  0  0  0  0  0  0  0  0  0  0
    3.1573   -1.6123    0.0000 C   0  0  0  0  0  0  0  0  0  0  0  0
    6.9501   -1.3904    0.0000 C   0  0  0  0  0  0  0  0  0  0  0  0
    7.4564   -2.0417    0.0000 C   0  0  0  0  0  0  0  0  0  0  0  0
    7.1794   -0.5979    0.0000 C   0  0  0  0  0  0  0  0  0  0  0  0
    6.4965   -0.1349    0.0000 O   0  0  0  0  0  0  0  0  0  0  0  0
    2.3164    0.7155    0.0000 C   0  0  0  0  0  0  0  0  0  0  0  0
    1.8134   -2.0978    0.0000 H   0  0  0  0  0  0  0  0  0  0  0  0
    1.2528   -0.5459    0.0000 H   0  0  0  0  0  0  0  0  0  0  0  0
    3.6604    1.2010    0.0000 H   0  0  0  0  0  0  0  0  0  0  0  0
    5.2846    0.9106    0.0000 H   0  0  0  0  0  0  0  0  0  0  0  0
    3.4376   -2.3882    0.0000 H   0  0  0  0  0  0  0  0  0  0  0  0
    7.7603   -1.2349    0.0000 H   0  0  0  0  0  0  0  0  0  0  0  0
    6.6983   -2.3672    0.0000 H   0  0  0  0  0  0  0  0  0  0  0  0
    7.5799   -2.8574    0.0000 H   0  0  0  0  0  0  0  0  0  0  0  0
    8.2769   -2.1282    0.0000 H   0  0  0  0  0  0  0  0  0  0  0  0
    7.9104   -0.2155    0.0000 H   0  0  0  0  0  0  0  0  0  0  0  0
    7.4532    0.1803    0.0000 H   0  0  0  0  0  0  0  0  0  0  0  0
    3.0923    0.9958    0.0000 H   0  0  0  0  0  0  0  0  0  0  0  0
    2.0361    1.4914    0.0000 H   0  0  0  0  0  0  0  0  0  0  0  0
    1.5405    0.4352    0.0000 H   0  0  0  0  0  0  0  0  0  0  0  0
  1  2  4  0  0  0  0
  2  3  4  0  0  0  0
  3  4  4  0  0  0  0
  4  5  4  0  0  0  0
  5  6  4  0  0  0  0
  6  7  4  0  0  0  0
  7  8  1  0  0  0  0
  8  9  2  0  0  0  0
  9 10  1  0  0  0  0
 10 11  2  0  0  0  0
 10 12  1  0  0  0  0
 12 13  2  0  0  0  0
 12 14  1  0  0  0  0
  7 14  4  0  0  0  0
 14 15  4  0  0  0  0
  4 15  4  0  0  0  0
 15 16  4  0  0  0  0
  1 16  4  0  0  0  0
  9 17  1  0  0  0  0
 17 18  1  0  0  0  0
 17 19  1  0  0  0  0
 19 20  1  0  0  0  0
  8 20  1  0  0  0  0
  3 21  1  0  0  0  0
  1 22  1  0  0  0  0
  2 23  1  0  0  0  0
  5 24  1  0  0  0  0
  6 25  1  0  0  0  0
 16 26  1  0  0  0  0
 17 27  1  0  0  0  0
 18 28  1  0  0  0  0
 18 29  1  0  0  0  0
 18 30  1  0  0  0  0
 19 31  1  0  0  0  0
 19 32  1  0  0  0  0
 21 33  1  0  0  0  0
 21 34  1  0  0  0  0
 21 35  1  0  0  0  0
M  END
> <Compound_name>
6

> <Standard Type>
IC50

> <Standard Relation>
'='

> <Standard Value>
8480.0

> <Standard Units>
nM

> <Outcome>
Inactive

> <InChIKey>
HARGZZNYNSYSGJ-UHFFFAOYNA-N

> <Molecule ChEMBL ID>
CHEMBL227075

$$$$

  Mrv1817 04132013512D          

 21 22  0  0  0  0            999 V2000
    1.4289   -2.4750    0.0000 C   0  0  0  0  0  0  0  0  0  0  0  0
    2.0964   -2.9599    0.0000 O   0  0  0  0  0  0  0  0  0  0  0  0
    1.8414   -3.7445    0.0000 C   0  0  0  0  0  0  0  0  0  0  0  0
    1.0164   -3.7445    0.0000 C   0  0  0  0  0  0  0  0  0  0  0  0
    0.7615   -2.9599    0.0000 C   0  0  0  0  0  0  0  0  0  0  0  0
    2.3263   -4.4120    0.0000 C   0  0  0  0  0  0  0  0  0  0  0  0
    1.9908   -5.1657    0.0000 O   0  0  0  0  0  0  0  0  0  0  0  0
    3.1468   -4.3258    0.0000 O   0  0  0  0  0  0  0  0  0  0  0  0
    3.6317   -4.9932    0.0000 C   0  0  0  0  0  0  0  0  0  0  0  0
    4.4522   -4.9070    0.0000 C   0  0  0  0  0  0  0  0  0  0  0  0
    4.9372   -5.5744    0.0000 N   0  0  0  0  0  0  0  0  0  0  0  0
    4.6016   -6.3281    0.0000 C   0  0  0  0  0  0  0  0  0  0  0  0
    3.7811   -6.4143    0.0000 C   0  0  0  0  0  0  0  0  0  0  0  0
    3.4456   -7.1680    0.0000 Br  0  0  0  0  0  0  0  0  0  0  0  0
    3.2962   -5.7469    0.0000 C   0  0  0  0  0  0  0  0  0  0  0  0
    1.4289   -1.6500    0.0000 H   0  0  0  0  0  0  0  0  0  0  0  0
    0.5315   -4.4120    0.0000 H   0  0  0  0  0  0  0  0  0  0  0  0
   -0.0231   -2.7050    0.0000 H   0  0  0  0  0  0  0  0  0  0  0  0
    4.7878   -4.1533    0.0000 H   0  0  0  0  0  0  0  0  0  0  0  0
    5.0865   -6.9955    0.0000 H   0  0  0  0  0  0  0  0  0  0  0  0
    2.4757   -5.8331    0.0000 H   0  0  0  0  0  0  0  0  0  0  0  0
  1  2  4  0  0  0  0
  2  3  4  0  0  0  0
  3  4  4  0  0  0  0
  4  5  4  0  0  0  0
  1  5  4  0  0  0  0
  3  6  1  0  0  0  0
  6  7  2  0  0  0  0
  6  8  1  0  0  0  0
  8  9  1  0  0  0  0
  9 10  4  0  0  0  0
 10 11  4  0  0  0  0
 11 12  4  0  0  0  0
 12 13  4  0  0  0  0
 13 14  1  0  0  0  0
 13 15  4  0  0  0  0
  9 15  4  0  0  0  0
  1 16  1  0  0  0  0
  4 17  1  0  0  0  0
  5 18  1  0  0  0  0
 10 19  1  0  0  0  0
 12 20  1  0  0  0  0
 15 21  1  0  0  0  0
M  END
> <Compound_name>
39

> <Standard Type>
IC50

> <Standard Relation>
'='

> <Standard Value>
50.0

> <Standard Units>
nM

> <Outcome>
Active

> <InChIKey>
HMICIXHTRIFAET-UHFFFAOYSA-N

> <Molecule ChEMBL ID>
CHEMBL222234

$$$$

  Mrv1817 04132013512D          

 32 33  0  0  0  0            999 V2000
    4.0673    3.1730    0.0000 N   0  0  0  0  0  0  0  0  0  0  0  0
    4.0673    2.3480    0.0000 C   0  0  0  0  0  0  0  0  0  0  0  0
    4.7818    1.9355    0.0000 O   0  0  0  0  0  0  0  0  0  0  0  0
    3.3528    1.9355    0.0000 C   0  0  0  0  0  0  0  0  0  0  0  0
    3.3528    1.1105    0.0000 C   0  0  0  0  0  0  0  0  0  0  0  0
    2.6384    0.6980    0.0000 C   0  0  0  0  0  0  0  0  0  0  0  0
    1.9239    1.1105    0.0000 C   0  0  0  0  0  0  0  0  0  0  0  0
    1.1393    0.8556    0.0000 N   0  0  0  0  0  0  0  0  0  0  0  0
    0.6543    1.5230    0.0000 C   0  0  0  0  0  0  0  0  0  0  0  0
   -0.1707    1.5230    0.0000 O   0  0  0  0  0  0  0  0  0  0  0  0
    1.1393    2.1905    0.0000 C   0  0  0  0  0  0  0  0  0  0  0  0
    0.8843    2.9751    0.0000 O   0  0  0  0  0  0  0  0  0  0  0  0
    1.9239    1.9355    0.0000 C   0  0  0  0  0  0  0  0  0  0  0  0
    2.6384    2.3480    0.0000 C   0  0  0  0  0  0  0  0  0  0  0  0
    0.8843    0.0710    0.0000 C   0  0  0  0  0  0  0  0  0  0  0  0
    1.4364   -0.5421    0.0000 C   0  0  0  0  0  0  0  0  0  0  0  0
    1.1814   -1.3267    0.0000 C   0  0  0  0  0  0  0  0  0  0  0  0
    1.7334   -1.9398    0.0000 C   0  0  0  0  0  0  0  0  0  0  0  0
    4.7818    3.5855    0.0000 H   0  0  0  0  0  0  0  0  0  0  0  0
    3.3528    3.5855    0.0000 H   0  0  0  0  0  0  0  0  0  0  0  0
    4.0673    0.6980    0.0000 H   0  0  0  0  0  0  0  0  0  0  0  0
    2.6384   -0.1270    0.0000 H   0  0  0  0  0  0  0  0  0  0  0  0
    2.6384    3.1730    0.0000 H   0  0  0  0  0  0  0  0  0  0  0  0
    0.0862    0.2799    0.0000 H   0  0  0  0  0  0  0  0  0  0  0  0
    0.2402   -0.4445    0.0000 H   0  0  0  0  0  0  0  0  0  0  0  0
    2.2345   -0.7510    0.0000 H   0  0  0  0  0  0  0  0  0  0  0  0
    2.0805   -0.0267    0.0000 H   0  0  0  0  0  0  0  0  0  0  0  0
    0.3833   -1.1178    0.0000 H   0  0  0  0  0  0  0  0  0  0  0  0
    0.5373   -1.8422    0.0000 H   0  0  0  0  0  0  0  0  0  0  0  0
    1.1204   -2.4919    0.0000 H   0  0  0  0  0  0  0  0  0  0  0  0
    2.2855   -2.5529    0.0000 H   0  0  0  0  0  0  0  0  0  0  0  0
    2.3465   -1.3878    0.0000 H   0  0  0  0  0  0  0  0  0  0  0  0
  1  2  1  0  0  0  0
  2  3  2  0  0  0  0
  2  4  1  0  0  0  0
  4  5  4  0  0  0  0
  5  6  4  0  0  0  0
  6  7  4  0  0  0  0
  7  8  1  0  0  0  0
  8  9  1  0  0  0  0
  9 10  2  0  0  0  0
  9 11  1  0  0  0  0
 11 12  2  0  0  0  0
 11 13  1  0  0  0  0
  7 13  4  0  0  0  0
 13 14  4  0  0  0  0
  4 14  4  0  0  0  0
  8 15  1  0  0  0  0
 15 16  1  0  0  0  0
 16 17  1  0  0  0  0
 17 18  1  0  0  0  0
  1 19  1  0  0  0  0
  1 20  1  0  0  0  0
  5 21  1  0  0  0  0
  6 22  1  0  0  0  0
 14 23  1  0  0  0  0
 15 24  1  0  0  0  0
 15 25  1  0  0  0  0
 16 26  1  0  0  0  0
 16 27  1  0  0  0  0
 17 28  1  0  0  0  0
 17 29  1  0  0  0  0
 18 30  1  0  0  0  0
 18 31  1  0  0  0  0
 18 32  1  0  0  0  0
M  END
> <Compound_name>
5c

> <Standard Type>
Ki

> <Standard Relation>
'='

> <Standard Value>
19018.20333333333

> <Standard Units>
nM

> <Outcome>
Inactive

> <InChIKey>
HRVIHQDVDQVYBE-UHFFFAOYSA-N

> <Molecule ChEMBL ID>
CHEMBL379727

$$$$

  Mrv1817 04132013512D          

 43 45  0  0  0  0            999 V2000
    2.8265   -0.6274    0.0000 N   0  0  0  0  0  0  0  0  0  0  0  0
    2.8265   -1.4524    0.0000 C   0  0  0  0  0  0  0  0  0  0  0  0
    3.4939   -1.9373    0.0000 C   0  0  0  0  0  0  0  0  0  0  0  0
    3.2390   -2.7219    0.0000 C   0  0  0  0  0  0  0  0  0  0  0  0
    2.4140   -2.7219    0.0000 N   0  0  0  0  0  0  0  0  0  0  0  0
    2.1591   -1.9373    0.0000 N   0  0  0  0  0  0  0  0  0  0  0  0
    3.7239   -3.3894    0.0000 C   0  0  0  0  0  0  0  0  0  0  0  0
    4.5489   -3.3894    0.0000 C   0  0  0  0  0  0  0  0  0  0  0  0
    4.8039   -4.1740    0.0000 C   0  0  0  0  0  0  0  0  0  0  0  0
    4.1364   -4.6589    0.0000 O   0  0  0  0  0  0  0  0  0  0  0  0
    3.4690   -4.1740    0.0000 C   0  0  0  0  0  0  0  0  0  0  0  0
    2.6844   -4.4289    0.0000 C   0  0  0  0  0  0  0  0  0  0  0  0
    5.5885   -4.4289    0.0000 C   0  0  0  0  0  0  0  0  0  0  0  0
    6.3731   -4.6839    0.0000 C   0  0  0  0  0  0  0  0  0  0  0  0
    5.8434   -3.6443    0.0000 C   0  0  0  0  0  0  0  0  0  0  0  0
    5.3335   -5.2135    0.0000 C   0  0  0  0  0  0  0  0  0  0  0  0
    3.5410   -0.2149    0.0000 S   0  0  0  0  0  0  0  0  0  0  0  0
    3.9535   -0.9294    0.0000 O   0  0  0  0  0  0  0  0  0  0  0  0
    3.1285    0.4996    0.0000 O   0  0  0  0  0  0  0  0  0  0  0  0
    4.2554    0.1976    0.0000 C   0  0  0  0  0  0  0  0  0  0  0  0
    4.3417    1.0181    0.0000 S   0  0  0  0  0  0  0  0  0  0  0  0
    5.1487    1.1896    0.0000 C   0  0  0  0  0  0  0  0  0  0  0  0
    5.5612    0.4752    0.0000 C   0  0  0  0  0  0  0  0  0  0  0  0
    5.0091   -0.1379    0.0000 C   0  0  0  0  0  0  0  0  0  0  0  0
    2.1120   -0.2149    0.0000 H   0  0  0  0  0  0  0  0  0  0  0  0
    4.2786   -1.6824    0.0000 H   0  0  0  0  0  0  0  0  0  0  0  0
    1.3744   -1.6824    0.0000 H   0  0  0  0  0  0  0  0  0  0  0  0
    5.0338   -2.7219    0.0000 H   0  0  0  0  0  0  0  0  0  0  0  0
    2.4294   -3.6443    0.0000 H   0  0  0  0  0  0  0  0  0  0  0  0
    1.8997   -4.6839    0.0000 H   0  0  0  0  0  0  0  0  0  0  0  0
    2.9393   -5.2135    0.0000 H   0  0  0  0  0  0  0  0  0  0  0  0
    6.1182   -5.4685    0.0000 H   0  0  0  0  0  0  0  0  0  0  0  0
    7.1577   -4.9388    0.0000 H   0  0  0  0  0  0  0  0  0  0  0  0
    6.6280   -3.8992    0.0000 H   0  0  0  0  0  0  0  0  0  0  0  0
    6.3792   -3.0170    0.0000 H   0  0  0  0  0  0  0  0  0  0  0  0
    5.4689   -2.9092    0.0000 H   0  0  0  0  0  0  0  0  0  0  0  0
    5.0210   -3.7090    0.0000 H   0  0  0  0  0  0  0  0  0  0  0  0
    4.7062   -4.6778    0.0000 H   0  0  0  0  0  0  0  0  0  0  0  0
    4.5985   -5.5881    0.0000 H   0  0  0  0  0  0  0  0  0  0  0  0
    5.3983   -6.0360    0.0000 H   0  0  0  0  0  0  0  0  0  0  0  0
    5.4842    1.9433    0.0000 H   0  0  0  0  0  0  0  0  0  0  0  0
    6.3816    0.3889    0.0000 H   0  0  0  0  0  0  0  0  0  0  0  0
    5.1806   -0.9449    0.0000 H   0  0  0  0  0  0  0  0  0  0  0  0
  1  2  1  0  0  0  0
  2  3  4  0  0  0  0
  3  4  4  0  0  0  0
  4  5  4  0  0  0  0
  5  6  4  0  0  0  0
  2  6  4  0  0  0  0
  4  7  1  0  0  0  0
  7  8  4  0  0  0  0
  8  9  4  0  0  0  0
  9 10  4  0  0  0  0
 10 11  4  0  0  0  0
  7 11  4  0  0  0  0
 11 12  1  0  0  0  0
  9 13  1  0  0  0  0
 13 14  1  0  0  0  0
 13 15  1  0  0  0  0
 13 16  1  0  0  0  0
  1 17  1  0  0  0  0
 17 18  2  0  0  0  0
 17 19  2  0  0  0  0
 17 20  1  0  0  0  0
 20 21  4  0  0  0  0
 21 22  4  0  0  0  0
 22 23  4  0  0  0  0
 23 24  4  0  0  0  0
 20 24  4  0  0  0  0
  1 25  1  0  0  0  0
  3 26  1  0  0  0  0
  6 27  1  0  0  0  0
  8 28  1  0  0  0  0
 12 29  1  0  0  0  0
 12 30  1  0  0  0  0
 12 31  1  0  0  0  0
 14 32  1  0  0  0  0
 14 33  1  0  0  0  0
 14 34  1  0  0  0  0
 15 35  1  0  0  0  0
 15 36  1  0  0  0  0
 15 37  1  0  0  0  0
 16 38  1  0  0  0  0
 16 39  1  0  0  0  0
 16 40  1  0  0  0  0
 22 41  1  0  0  0  0
 23 42  1  0  0  0  0
 24 43  1  0  0  0  0
M  END
> <Compound_name>
17

> <Standard Type>
IC50

> <Standard Relation>
'='

> <Standard Value>
10000.0

> <Standard Units>
nM

> <Outcome>
Active

> <InChIKey>
HUNAFKUGDBHPEN-UHFFFAOYSA-N

> <Molecule ChEMBL ID>
CHEMBL212190

$$$$

  Mrv1817 04132013512D          

 39 40  0  0  0  0            999 V2000
    0.7145   -2.0625    0.0000 C   0  0  0  0  0  0  0  0  0  0  0  0
    1.4289   -2.4750    0.0000 C   0  0  0  0  0  0  0  0  0  0  0  0
    1.4289   -3.3000    0.0000 C   0  0  0  0  0  0  0  0  0  0  0  0
    0.7145   -3.7125    0.0000 C   0  0  0  0  0  0  0  0  0  0  0  0
    0.0000   -3.3000    0.0000 C   0  0  0  0  0  0  0  0  0  0  0  0
    0.0000   -2.4750    0.0000 C   0  0  0  0  0  0  0  0  0  0  0  0
   -0.7145   -2.0625    0.0000 O   0  0  0  0  0  0  0  0  0  0  0  0
   -0.7145   -1.2375    0.0000 C   0  0  0  0  0  0  0  0  0  0  0  0
    0.0000   -0.8250    0.0000 O   0  0  0  0  0  0  0  0  0  0  0  0
   -1.4289   -0.8250    0.0000 C   0  0  0  0  0  0  0  0  0  0  0  0
   -2.1434   -1.2375    0.0000 Cl  0  0  0  0  0  0  0  0  0  0  0  0
   -1.4289   -0.0000    0.0000 C   0  0  0  0  0  0  0  0  0  0  0  0
   -2.1434    0.4125    0.0000 Cl  0  0  0  0  0  0  0  0  0  0  0  0
   -0.7145    0.4125    0.0000 Cl  0  0  0  0  0  0  0  0  0  0  0  0
    2.1434   -3.7125    0.0000 S   0  0  0  0  0  0  0  0  0  0  0  0
    1.7309   -4.4270    0.0000 O   0  0  0  0  0  0  0  0  0  0  0  0
    2.5559   -2.9980    0.0000 O   0  0  0  0  0  0  0  0  0  0  0  0
    2.8579   -4.1250    0.0000 C   0  0  0  0  0  0  0  0  0  0  0  0
    3.5724   -3.7125    0.0000 C   0  0  0  0  0  0  0  0  0  0  0  0
    4.2868   -4.1250    0.0000 C   0  0  0  0  0  0  0  0  0  0  0  0
    4.2868   -4.9500    0.0000 C   0  0  0  0  0  0  0  0  0  0  0  0
    5.0013   -5.3625    0.0000 O   0  0  0  0  0  0  0  0  0  0  0  0
    5.0013   -6.1875    0.0000 C   0  0  0  0  0  0  0  0  0  0  0  0
    4.2868   -6.6000    0.0000 O   0  0  0  0  0  0  0  0  0  0  0  0
    5.7158   -6.6000    0.0000 C   0  0  0  0  0  0  0  0  0  0  0  0
    6.4302   -6.1875    0.0000 Cl  0  0  0  0  0  0  0  0  0  0  0  0
    5.7158   -7.4250    0.0000 C   0  0  0  0  0  0  0  0  0  0  0  0
    6.4302   -7.8375    0.0000 Cl  0  0  0  0  0  0  0  0  0  0  0  0
    5.0013   -7.8375    0.0000 Cl  0  0  0  0  0  0  0  0  0  0  0  0
    3.5724   -5.3625    0.0000 C   0  0  0  0  0  0  0  0  0  0  0  0
    2.8579   -4.9500    0.0000 C   0  0  0  0  0  0  0  0  0  0  0  0
    0.7145   -1.2375    0.0000 H   0  0  0  0  0  0  0  0  0  0  0  0
    2.1434   -2.0625    0.0000 H   0  0  0  0  0  0  0  0  0  0  0  0
    0.7145   -4.5375    0.0000 H   0  0  0  0  0  0  0  0  0  0  0  0
   -0.7145   -3.7125    0.0000 H   0  0  0  0  0  0  0  0  0  0  0  0
    3.5724   -2.8875    0.0000 H   0  0  0  0  0  0  0  0  0  0  0  0
    5.0013   -3.7125    0.0000 H   0  0  0  0  0  0  0  0  0  0  0  0
    3.5724   -6.1875    0.0000 H   0  0  0  0  0  0  0  0  0  0  0  0
    2.1434   -5.3625    0.0000 H   0  0  0  0  0  0  0  0  0  0  0  0
  1  2  4  0  0  0  0
  2  3  4  0  0  0  0
  3  4  4  0  0  0  0
  4  5  4  0  0  0  0
  5  6  4  0  0  0  0
  1  6  4  0  0  0  0
  6  7  1  0  0  0  0
  7  8  1  0  0  0  0
  8  9  2  0  0  0  0
  8 10  1  0  0  0  0
 10 11  1  0  0  0  0
 10 12  2  0  0  0  0
 12 13  1  0  0  0  0
 12 14  1  0  0  0  0
  3 15  1  0  0  0  0
 15 16  2  0  0  0  0
 15 17  2  0  0  0  0
 15 18  1  0  0  0  0
 18 19  4  0  0  0  0
 19 20  4  0  0  0  0
 20 21  4  0  0  0  0
 21 22  1  0  0  0  0
 22 23  1  0  0  0  0
 23 24  2  0  0  0  0
 23 25  1  0  0  0  0
 25 26  1  0  0  0  0
 25 27  2  0  0  0  0
 27 28  1  0  0  0  0
 27 29  1  0  0  0  0
 21 30  4  0  0  0  0
 30 31  4  0  0  0  0
 18 31  4  0  0  0  0
  1 32  1  0  0  0  0
  2 33  1  0  0  0  0
  4 34  1  0  0  0  0
  5 35  1  0  0  0  0
 19 36  1  0  0  0  0
 20 37  1  0  0  0  0
 30 38  1  0  0  0  0
 31 39  1  0  0  0  0
M  END
> <Compound_name>
4

> <Standard Type>
IC50

> <Standard Relation>
'='

> <Standard Value>
900.0

> <Standard Units>
nM

> <Outcome>
Active

> <InChIKey>
HXYPMMAPDRFFTM-UHFFFAOYSA-N

> <Molecule ChEMBL ID>
CHEMBL212454

$$$$

  Mrv1817 04132013512D          

 34 35  0  0  0  0            999 V2000
    0.7145   -2.0620    0.0000 N   0  0  0  0  0  0  0  0  0  0  0  0
    1.4289   -1.6495    0.0000 C   0  0  0  0  0  0  0  0  0  0  0  0
    1.4289   -0.8245    0.0000 O   0  0  0  0  0  0  0  0  0  0  0  0
    2.1434   -2.0620    0.0000 C   0  0  0  0  0  0  0  0  0  0  0  0
    2.8579   -1.6495    0.0000 S   0  0  0  0  0  0  0  0  0  0  0  0
    3.5724   -2.0620    0.0000 C   0  0  0  0  0  0  0  0  0  0  0  0
    4.2868   -1.6495    0.0000 N   0  0  0  0  0  0  0  0  0  0  0  0
    5.0013   -2.0620    0.0000 C   0  0  0  0  0  0  0  0  0  0  0  0
    5.0013   -2.8870    0.0000 C   0  0  0  0  0  0  0  0  0  0  0  0
    4.2868   -3.2995    0.0000 C   0  0  0  0  0  0  0  0  0  0  0  0
    3.5724   -2.8870    0.0000 N   0  0  0  0  0  0  0  0  0  0  0  0
    4.2868   -4.1245    0.0000 C   0  0  0  0  0  0  0  0  0  0  0  0
    4.2868   -4.9495    0.0000 F   0  0  0  0  0  0  0  0  0  0  0  0
    5.1118   -4.1245    0.0000 F   0  0  0  0  0  0  0  0  0  0  0  0
    3.4618   -4.1245    0.0000 F   0  0  0  0  0  0  0  0  0  0  0  0
    5.7158   -1.6495    0.0000 C   0  0  0  0  0  0  0  0  0  0  0  0
    0.0000   -1.6495    0.0000 C   0  0  0  0  0  0  0  0  0  0  0  0
   -0.7145   -2.0620    0.0000 C   0  0  0  0  0  0  0  0  0  0  0  0
   -1.4289   -1.6495    0.0000 C   0  0  0  0  0  0  0  0  0  0  0  0
   -1.4289   -0.8245    0.0000 C   0  0  0  0  0  0  0  0  0  0  0  0
   -2.1434   -0.4120    0.0000 Cl  0  0  0  0  0  0  0  0  0  0  0  0
   -0.7145   -0.4120    0.0000 C   0  0  0  0  0  0  0  0  0  0  0  0
    0.0000   -0.8245    0.0000 C   0  0  0  0  0  0  0  0  0  0  0  0
    0.7145   -0.4120    0.0000 F   0  0  0  0  0  0  0  0  0  0  0  0
    0.7145   -2.8870    0.0000 H   0  0  0  0  0  0  0  0  0  0  0  0
    1.7732   -2.7992    0.0000 H   0  0  0  0  0  0  0  0  0  0  0  0
    2.5137   -2.7992    0.0000 H   0  0  0  0  0  0  0  0  0  0  0  0
    5.7158   -3.2995    0.0000 H   0  0  0  0  0  0  0  0  0  0  0  0
    6.1283   -2.3640    0.0000 H   0  0  0  0  0  0  0  0  0  0  0  0
    6.4302   -1.2370    0.0000 H   0  0  0  0  0  0  0  0  0  0  0  0
    5.3033   -0.9350    0.0000 H   0  0  0  0  0  0  0  0  0  0  0  0
   -0.7145   -2.8870    0.0000 H   0  0  0  0  0  0  0  0  0  0  0  0
   -2.1434   -2.0620    0.0000 H   0  0  0  0  0  0  0  0  0  0  0  0
   -0.7145    0.4130    0.0000 H   0  0  0  0  0  0  0  0  0  0  0  0
  1  2  1  0  0  0  0
  2  3  2  0  0  0  0
  2  4  1  0  0  0  0
  4  5  1  0  0  0  0
  5  6  1  0  0  0  0
  6  7  4  0  0  0  0
  7  8  4  0  0  0  0
  8  9  4  0  0  0  0
  9 10  4  0  0  0  0
 10 11  4  0  0  0  0
  6 11  4  0  0  0  0
 10 12  1  0  0  0  0
 12 13  1  0  0  0  0
 12 14  1  0  0  0  0
 12 15  1  0  0  0  0
  8 16  1  0  0  0  0
  1 17  1  0  0  0  0
 17 18  4  0  0  0  0
 18 19  4  0  0  0  0
 19 20  4  0  0  0  0
 20 21  1  0  0  0  0
 20 22  4  0  0  0  0
 22 23  4  0  0  0  0
 17 23  4  0  0  0  0
 23 24  1  0  0  0  0
  1 25  1  0  0  0  0
  4 26  1  0  0  0  0
  4 27  1  0  0  0  0
  9 28  1  0  0  0  0
 16 29  1  0  0  0  0
 16 30  1  0  0  0  0
 16 31  1  0  0  0  0
 18 32  1  0  0  0  0
 19 33  1  0  0  0  0
 22 34  1  0  0  0  0
M  END
> <Compound_name>
27

> <Standard Type>
IC50

> <Standard Relation>
'='

> <Standard Value>
9.9763140748444E11

> <Standard Units>
nM

> <Outcome>
Inactive

> <InChIKey>
HYEIKCOUEGKGTH-UHFFFAOYSA-N

> <Molecule ChEMBL ID>
CHEMBL210195

$$$$

  Mrv1817 04132013512D          

 40 43  0  0  0  0            999 V2000
    4.9884    0.6502    0.0000 C   0  0  0  0  0  0  0  0  0  0  0  0
    4.3055    1.1131    0.0000 O   0  0  0  0  0  0  0  0  0  0  0  0
    3.6542    0.6068    0.0000 C   0  0  0  0  0  0  0  0  0  0  0  0
    3.9345   -0.1691    0.0000 C   0  0  0  0  0  0  0  0  0  0  0  0
    4.7591   -0.1423    0.0000 C   0  0  0  0  0  0  0  0  0  0  0  0
    5.2654   -0.7937    0.0000 C   0  0  0  0  0  0  0  0  0  0  0  0
    3.4027   -0.7999    0.0000 C   0  0  0  0  0  0  0  0  0  0  0  0
    3.6830   -1.5758    0.0000 O   0  0  0  0  0  0  0  0  0  0  0  0
    2.5906   -0.6546    0.0000 C   0  0  0  0  0  0  0  0  0  0  0  0
    2.0587   -1.2853    0.0000 O   0  0  0  0  0  0  0  0  0  0  0  0
    2.3103    0.1213    0.0000 C   0  0  0  0  0  0  0  0  0  0  0  0
    2.8421    0.7520    0.0000 C   0  0  0  0  0  0  0  0  0  0  0  0
    2.5618    1.5279    0.0000 C   0  0  0  0  0  0  0  0  0  0  0  0
    1.7497    1.6731    0.0000 C   0  0  0  0  0  0  0  0  0  0  0  0
    1.2178    1.0424    0.0000 C   0  0  0  0  0  0  0  0  0  0  0  0
    1.4981    0.2665    0.0000 C   0  0  0  0  0  0  0  0  0  0  0  0
    0.9663   -0.3642    0.0000 C   0  0  0  0  0  0  0  0  0  0  0  0
    0.1542   -0.2190    0.0000 C   0  0  0  0  0  0  0  0  0  0  0  0
   -0.1261    0.5569    0.0000 C   0  0  0  0  0  0  0  0  0  0  0  0
    0.4057    1.1876    0.0000 C   0  0  0  0  0  0  0  0  0  0  0  0
   -0.2060    1.7411    0.0000 C   0  0  0  0  0  0  0  0  0  0  0  0
    0.5225    2.0043    0.0000 C   0  0  0  0  0  0  0  0  0  0  0  0
    5.7643    0.9304    0.0000 H   0  0  0  0  0  0  0  0  0  0  0  0
    4.6141   -1.3000    0.0000 H   0  0  0  0  0  0  0  0  0  0  0  0
    5.7718   -1.4450    0.0000 H   0  0  0  0  0  0  0  0  0  0  0  0
    5.9168   -0.2873    0.0000 H   0  0  0  0  0  0  0  0  0  0  0  0
    3.0936    2.1586    0.0000 H   0  0  0  0  0  0  0  0  0  0  0  0
    1.4694    2.4491    0.0000 H   0  0  0  0  0  0  0  0  0  0  0  0
    0.8686   -1.1834    0.0000 H   0  0  0  0  0  0  0  0  0  0  0  0
    1.5650   -0.9318    0.0000 H   0  0  0  0  0  0  0  0  0  0  0  0
   -0.6041   -0.5439    0.0000 H   0  0  0  0  0  0  0  0  0  0  0  0
   -0.0380   -1.0213    0.0000 H   0  0  0  0  0  0  0  0  0  0  0  0
   -0.7867    1.0512    0.0000 H   0  0  0  0  0  0  0  0  0  0  0  0
   -0.9170    0.3222    0.0000 H   0  0  0  0  0  0  0  0  0  0  0  0
    0.0437    2.5274    0.0000 H   0  0  0  0  0  0  0  0  0  0  0  0
   -0.6779    2.4178    0.0000 H   0  0  0  0  0  0  0  0  0  0  0  0
   -1.0302    1.7785    0.0000 H   0  0  0  0  0  0  0  0  0  0  0  0
    1.1500    1.4687    0.0000 H   0  0  0  0  0  0  0  0  0  0  0  0
    1.3108    2.2478    0.0000 H   0  0  0  0  0  0  0  0  0  0  0  0
    0.7386    2.8005    0.0000 H   0  0  0  0  0  0  0  0  0  0  0  0
  1  2  4  0  0  0  0
  2  3  4  0  0  0  0
  3  4  4  0  0  0  0
  4  5  4  0  0  0  0
  1  5  4  0  0  0  0
  5  6  1  0  0  0  0
  4  7  1  0  0  0  0
  7  8  2  0  0  0  0
  7  9  1  0  0  0  0
  9 10  2  0  0  0  0
  9 11  1  0  0  0  0
 11 12  4  0  0  0  0
  3 12  1  0  0  0  0
 12 13  4  0  0  0  0
 13 14  4  0  0  0  0
 14 15  4  0  0  0  0
 15 16  4  0  0  0  0
 11 16  4  0  0  0  0
 16 17  1  0  0  0  0
 17 18  1  0  0  0  0
 18 19  1  0  0  0  0
 19 20  1  0  0  0  0
 15 20  1  0  0  0  0
 20 21  1  0  0  0  0
 20 22  1  0  0  0  0
  1 23  1  0  0  0  0
  6 24  1  0  0  0  0
  6 25  1  0  0  0  0
  6 26  1  0  0  0  0
 13 27  1  0  0  0  0
 14 28  1  0  0  0  0
 17 29  1  0  0  0  0
 17 30  1  0  0  0  0
 18 31  1  0  0  0  0
 18 32  1  0  0  0  0
 19 33  1  0  0  0  0
 19 34  1  0  0  0  0
 21 35  1  0  0  0  0
 21 36  1  0  0  0  0
 21 37  1  0  0  0  0
 22 38  1  0  0  0  0
 22 39  1  0  0  0  0
 22 40  1  0  0  0  0
M  END
> <Compound_name>
1; SID24824099; 7, Tanshinone IIA

> <Standard Type>
IC50

> <Standard Relation>
'='

> <Standard Value>
29750.0

> <Standard Units>
nM

> <Outcome>
Inactive

> <InChIKey>
HYXITZLLTYIPOF-UHFFFAOYSA-N

> <Molecule ChEMBL ID>
CHEMBL187266

$$$$

  Mrv1817 04132013512D          

 55 57  0  0  0  0            999 V2000
    1.4389   -2.4693    0.0000 N   0  0  0  0  0  0  0  0  0  0  0  0
    1.4389   -1.6443    0.0000 C   0  0  0  0  0  0  0  0  0  0  0  0
    0.7244   -1.2318    0.0000 O   0  0  0  0  0  0  0  0  0  0  0  0
    2.1534   -1.2318    0.0000 C   0  0  0  0  0  0  0  0  0  0  0  0
    2.1534   -0.4068    0.0000 S   0  0  0  0  0  0  0  0  0  0  0  0
    2.8678    0.0057    0.0000 C   0  0  0  0  0  0  0  0  0  0  0  0
    2.8678    0.8307    0.0000 N   0  0  0  0  0  0  0  0  0  0  0  0
    3.5823    1.2432    0.0000 C   0  0  0  0  0  0  0  0  0  0  0  0
    3.5823    2.0682    0.0000 O   0  0  0  0  0  0  0  0  0  0  0  0
    4.2968    0.8307    0.0000 C   0  0  0  0  0  0  0  0  0  0  0  0
    5.0112    1.2432    0.0000 C   0  0  0  0  0  0  0  0  0  0  0  0
    5.7257    1.6557    0.0000 N   0  0  0  0  0  0  0  0  0  0  0  0
    4.2968    0.0057    0.0000 C   0  0  0  0  0  0  0  0  0  0  0  0
    3.5823   -0.4068    0.0000 N   0  0  0  0  0  0  0  0  0  0  0  0
    5.0112   -0.4068    0.0000 C   0  0  0  0  0  0  0  0  0  0  0  0
    5.7257    0.0057    0.0000 C   0  0  0  0  0  0  0  0  0  0  0  0
    6.4402   -0.4068    0.0000 C   0  0  0  0  0  0  0  0  0  0  0  0
    6.4402   -1.2318    0.0000 C   0  0  0  0  0  0  0  0  0  0  0  0
    5.7257   -1.6443    0.0000 C   0  0  0  0  0  0  0  0  0  0  0  0
    5.7257   -2.4693    0.0000 O   0  0  0  0  0  0  0  0  0  0  0  0
    6.4402   -2.8818    0.0000 C   0  0  0  0  0  0  0  0  0  0  0  0
    5.0112   -1.2318    0.0000 C   0  0  0  0  0  0  0  0  0  0  0  0
    2.8678   -1.6443    0.0000 C   0  0  0  0  0  0  0  0  0  0  0  0
    2.8678   -2.4693    0.0000 C   0  0  0  0  0  0  0  0  0  0  0  0
    0.7244   -2.8818    0.0000 C   0  0  0  0  0  0  0  0  0  0  0  0
    0.7244   -3.7068    0.0000 C   0  0  0  0  0  0  0  0  0  0  0  0
    0.0100   -4.1193    0.0000 C   0  0  0  0  0  0  0  0  0  0  0  0
   -0.7045   -3.7068    0.0000 C   0  0  0  0  0  0  0  0  0  0  0  0
   -0.7045   -2.8818    0.0000 C   0  0  0  0  0  0  0  0  0  0  0  0
    0.0100   -2.4693    0.0000 C   0  0  0  0  0  0  0  0  0  0  0  0
   -1.4190   -4.1193    0.0000 C   0  0  0  0  0  0  0  0  0  0  0  0
   -1.4190   -4.9443    0.0000 O   0  0  0  0  0  0  0  0  0  0  0  0
   -2.1335   -3.7068    0.0000 C   0  0  0  0  0  0  0  0  0  0  0  0
    2.1534   -2.8818    0.0000 H   0  0  0  0  0  0  0  0  0  0  0  0
    1.4389   -0.8193    0.0000 H   0  0  0  0  0  0  0  0  0  0  0  0
    3.5823   -1.2318    0.0000 H   0  0  0  0  0  0  0  0  0  0  0  0
    5.7257    0.8307    0.0000 H   0  0  0  0  0  0  0  0  0  0  0  0
    7.1547    0.0057    0.0000 H   0  0  0  0  0  0  0  0  0  0  0  0
    7.1547   -1.6443    0.0000 H   0  0  0  0  0  0  0  0  0  0  0  0
    6.0277   -3.5962    0.0000 H   0  0  0  0  0  0  0  0  0  0  0  0
    7.1547   -3.2943    0.0000 H   0  0  0  0  0  0  0  0  0  0  0  0
    6.8527   -2.1673    0.0000 H   0  0  0  0  0  0  0  0  0  0  0  0
    4.2968   -1.6443    0.0000 H   0  0  0  0  0  0  0  0  0  0  0  0
    2.8678   -0.8193    0.0000 H   0  0  0  0  0  0  0  0  0  0  0  0
    2.1534   -2.0568    0.0000 H   0  0  0  0  0  0  0  0  0  0  0  0
    2.8678   -3.2943    0.0000 H   0  0  0  0  0  0  0  0  0  0  0  0
    3.5823   -2.8818    0.0000 H   0  0  0  0  0  0  0  0  0  0  0  0
    3.5823   -2.0568    0.0000 H   0  0  0  0  0  0  0  0  0  0  0  0
    1.4389   -4.1193    0.0000 H   0  0  0  0  0  0  0  0  0  0  0  0
    0.0100   -4.9443    0.0000 H   0  0  0  0  0  0  0  0  0  0  0  0
   -1.4190   -2.4693    0.0000 H   0  0  0  0  0  0  0  0  0  0  0  0
    0.0100   -1.6443    0.0000 H   0  0  0  0  0  0  0  0  0  0  0  0
   -1.7210   -2.9923    0.0000 H   0  0  0  0  0  0  0  0  0  0  0  0
   -2.8479   -3.2943    0.0000 H   0  0  0  0  0  0  0  0  0  0  0  0
   -2.5460   -4.4212    0.0000 H   0  0  0  0  0  0  0  0  0  0  0  0
  1  2  1  0  0  0  0
  2  3  2  0  0  0  0
  2  4  1  0  0  0  0
  4  5  1  0  0  0  0
  5  6  1  0  0  0  0
  6  7  2  0  0  0  0
  7  8  1  0  0  0  0
  8  9  2  0  0  0  0
  8 10  1  0  0  0  0
 10 11  1  0  0  0  0
 11 12  3  0  0  0  0
 10 13  2  0  0  0  0
 13 14  1  0  0  0  0
  6 14  1  0  0  0  0
 13 15  1  0  0  0  0
 15 16  4  0  0  0  0
 16 17  4  0  0  0  0
 17 18  4  0  0  0  0
 18 19  4  0  0  0  0
 19 20  1  0  0  0  0
 20 21  1  0  0  0  0
 19 22  4  0  0  0  0
 15 22  4  0  0  0  0
  4 23  1  0  0  0  0
 23 24  1  0  0  0  0
  1 25  1  0  0  0  0
 25 26  4  0  0  0  0
 26 27  4  0  0  0  0
 27 28  4  0  0  0  0
 28 29  4  0  0  0  0
 29 30  4  0  0  0  0
 25 30  4  0  0  0  0
 28 31  1  0  0  0  0
 31 32  2  0  0  0  0
 31 33  1  0  0  0  0
  1 34  1  0  0  0  0
  4 35  1  0  0  0  0
 14 36  1  0  0  0  0
 16 37  1  0  0  0  0
 17 38  1  0  0  0  0
 18 39  1  0  0  0  0
 21 40  1  0  0  0  0
 21 41  1  0  0  0  0
 21 42  1  0  0  0  0
 22 43  1  0  0  0  0
 23 44  1  0  0  0  0
 23 45  1  0  0  0  0
 24 46  1  0  0  0  0
 24 47  1  0  0  0  0
 24 48  1  0  0  0  0
 26 49  1  0  0  0  0
 27 50  1  0  0  0  0
 29 51  1  0  0  0  0
 30 52  1  0  0  0  0
 33 53  1  0  0  0  0
 33 54  1  0  0  0  0
 33 55  1  0  0  0  0
M  END
> <Compound_name>
14

> <Standard Type>
IC50

> <Standard Relation>
'='

> <Standard Value>
8.2979345671878E12

> <Standard Units>
nM

> <Outcome>
Inactive

> <InChIKey>
IMKQISNVNXIKPN-UHFFFAOYNA-N

> <Molecule ChEMBL ID>
CHEMBL210487

$$$$

  Mrv1817 04132013512D          

 35 36  0  0  0  0            999 V2000
    0.7145   -2.0625    0.0000 C   0  0  0  0  0  0  0  0  0  0  0  0
    1.4289   -2.4750    0.0000 C   0  0  0  0  0  0  0  0  0  0  0  0
    2.1434   -2.0625    0.0000 Cl  0  0  0  0  0  0  0  0  0  0  0  0
    1.4289   -3.3000    0.0000 C   0  0  0  0  0  0  0  0  0  0  0  0
    0.7145   -3.7125    0.0000 C   0  0  0  0  0  0  0  0  0  0  0  0
   -0.0000   -3.3000    0.0000 C   0  0  0  0  0  0  0  0  0  0  0  0
   -0.0000   -2.4750    0.0000 C   0  0  0  0  0  0  0  0  0  0  0  0
   -0.7145   -2.0625    0.0000 Cl  0  0  0  0  0  0  0  0  0  0  0  0
   -0.7145   -3.7125    0.0000 S   0  0  0  0  0  0  0  0  0  0  0  0
   -1.1270   -2.9980    0.0000 O   0  0  0  0  0  0  0  0  0  0  0  0
   -0.3020   -4.4270    0.0000 O   0  0  0  0  0  0  0  0  0  0  0  0
   -1.4289   -4.1250    0.0000 C   0  0  0  0  0  0  0  0  0  0  0  0
   -1.4289   -4.9500    0.0000 C   0  0  0  0  0  0  0  0  0  0  0  0
   -2.1434   -5.3625    0.0000 C   0  0  0  0  0  0  0  0  0  0  0  0
   -2.8579   -4.9500    0.0000 C   0  0  0  0  0  0  0  0  0  0  0  0
   -2.8579   -4.1250    0.0000 C   0  0  0  0  0  0  0  0  0  0  0  0
   -2.1434   -3.7125    0.0000 C   0  0  0  0  0  0  0  0  0  0  0  0
   -2.1434   -2.8875    0.0000 N   0  0  0  0  0  0  0  0  0  0  0  0
   -1.4289   -2.4750    0.0000 O   0  0  0  0  0  0  0  0  0  0  0  0
   -2.8579   -2.4750    0.0000 O   0  0  0  0  0  0  0  0  0  0  0  0
   -3.5724   -5.3625    0.0000 C   0  0  0  0  0  0  0  0  0  0  0  0
   -4.2868   -5.7750    0.0000 F   0  0  0  0  0  0  0  0  0  0  0  0
   -3.9849   -4.6480    0.0000 F   0  0  0  0  0  0  0  0  0  0  0  0
   -3.1599   -6.0770    0.0000 F   0  0  0  0  0  0  0  0  0  0  0  0
   -0.7145   -5.3625    0.0000 N   0  0  0  0  0  0  0  0  0  0  0  0
   -0.7145   -6.1875    0.0000 O   0  0  0  0  0  0  0  0  0  0  0  0
   -0.0000   -4.9500    0.0000 O   0  0  0  0  0  0  0  0  0  0  0  0
    2.1434   -3.7125    0.0000 C   0  0  0  0  0  0  0  0  0  0  0  0
    0.7145   -1.2375    0.0000 H   0  0  0  0  0  0  0  0  0  0  0  0
    0.7145   -4.5375    0.0000 H   0  0  0  0  0  0  0  0  0  0  0  0
   -2.1434   -6.1875    0.0000 H   0  0  0  0  0  0  0  0  0  0  0  0
   -3.5724   -3.7125    0.0000 H   0  0  0  0  0  0  0  0  0  0  0  0
    1.7309   -4.4270    0.0000 H   0  0  0  0  0  0  0  0  0  0  0  0
    2.8579   -4.1250    0.0000 H   0  0  0  0  0  0  0  0  0  0  0  0
    2.5559   -2.9980    0.0000 H   0  0  0  0  0  0  0  0  0  0  0  0
  1  2  4  0  0  0  0
  2  3  1  0  0  0  0
  2  4  4  0  0  0  0
  4  5  4  0  0  0  0
  5  6  4  0  0  0  0
  6  7  4  0  0  0  0
  1  7  4  0  0  0  0
  7  8  1  0  0  0  0
  6  9  1  0  0  0  0
  9 10  2  0  0  0  0
  9 11  2  0  0  0  0
  9 12  1  0  0  0  0
 12 13  4  0  0  0  0
 13 14  4  0  0  0  0
 14 15  4  0  0  0  0
 15 16  4  0  0  0  0
 16 17  4  0  0  0  0
 12 17  4  0  0  0  0
 17 18  1  0  0  0  0
 18 19  2  0  0  0  0
 18 20  2  0  0  0  0
 15 21  1  0  0  0  0
 21 22  1  0  0  0  0
 21 23  1  0  0  0  0
 21 24  1  0  0  0  0
 13 25  1  0  0  0  0
 25 26  2  0  0  0  0
 25 27  2  0  0  0  0
  4 28  1  0  0  0  0
  1 29  1  0  0  0  0
  5 30  1  0  0  0  0
 14 31  1  0  0  0  0
 16 32  1  0  0  0  0
 28 33  1  0  0  0  0
 28 34  1  0  0  0  0
 28 35  1  0  0  0  0
M  END
> <Compound_name>
3

> <Standard Type>
IC50

> <Standard Relation>
'='

> <Standard Value>
300.0

> <Standard Units>
nM

> <Outcome>
Active

> <InChIKey>
INAZPZCJNPPHGV-UHFFFAOYSA-N

> <Molecule ChEMBL ID>
CHEMBL212218

$$$$

  Mrv1817 04132013512D          

 43 46  0  0  0  0            999 V2000
   -3.4656   -2.9487    0.0000 N   0  0  0  0  0  0  0  0  0  0  0  0
   -2.7512   -2.5362    0.0000 C   0  0  0  0  0  0  0  0  0  0  0  0
   -2.7512   -1.7112    0.0000 O   0  0  0  0  0  0  0  0  0  0  0  0
   -2.0367   -2.9487    0.0000 C   0  0  0  0  0  0  0  0  0  0  0  0
   -1.3222   -2.5362    0.0000 S   0  0  0  0  0  0  0  0  0  0  0  0
   -0.6078   -2.9487    0.0000 C   0  0  0  0  0  0  0  0  0  0  0  0
    0.1067   -2.5362    0.0000 N   0  0  0  0  0  0  0  0  0  0  0  0
    0.8212   -2.9487    0.0000 C   0  0  0  0  0  0  0  0  0  0  0  0
    0.8212   -3.7737    0.0000 C   0  0  0  0  0  0  0  0  0  0  0  0
    0.1067   -4.1862    0.0000 C   0  0  0  0  0  0  0  0  0  0  0  0
   -0.6078   -3.7737    0.0000 N   0  0  0  0  0  0  0  0  0  0  0  0
    0.1067   -5.0112    0.0000 C   0  0  0  0  0  0  0  0  0  0  0  0
    0.7741   -5.4961    0.0000 N   0  0  0  0  0  0  0  0  0  0  0  0
    0.5192   -6.2807    0.0000 C   0  0  0  0  0  0  0  0  0  0  0  0
   -0.3058   -6.2807    0.0000 S   0  0  0  0  0  0  0  0  0  0  0  0
   -0.5607   -5.4961    0.0000 C   0  0  0  0  0  0  0  0  0  0  0  0
    1.0041   -6.9482    0.0000 C   0  0  0  0  0  0  0  0  0  0  0  0
    1.8291   -6.9482    0.0000 N   0  0  0  0  0  0  0  0  0  0  0  0
    2.0841   -7.7328    0.0000 C   0  0  0  0  0  0  0  0  0  0  0  0
    1.4166   -8.2177    0.0000 S   0  0  0  0  0  0  0  0  0  0  0  0
    0.7492   -7.7328    0.0000 C   0  0  0  0  0  0  0  0  0  0  0  0
    2.8687   -7.9877    0.0000 C   0  0  0  0  0  0  0  0  0  0  0  0
   -4.1801   -2.5362    0.0000 C   0  0  0  0  0  0  0  0  0  0  0  0
   -4.8946   -2.9487    0.0000 C   0  0  0  0  0  0  0  0  0  0  0  0
   -5.6091   -2.5362    0.0000 C   0  0  0  0  0  0  0  0  0  0  0  0
   -5.6091   -1.7112    0.0000 C   0  0  0  0  0  0  0  0  0  0  0  0
   -6.3235   -1.2987    0.0000 Cl  0  0  0  0  0  0  0  0  0  0  0  0
   -4.8946   -1.2987    0.0000 C   0  0  0  0  0  0  0  0  0  0  0  0
   -4.1801   -1.7112    0.0000 C   0  0  0  0  0  0  0  0  0  0  0  0
   -3.4656   -3.7737    0.0000 H   0  0  0  0  0  0  0  0  0  0  0  0
   -2.4070   -3.6859    0.0000 H   0  0  0  0  0  0  0  0  0  0  0  0
   -1.6664   -3.6859    0.0000 H   0  0  0  0  0  0  0  0  0  0  0  0
    1.5356   -2.5362    0.0000 H   0  0  0  0  0  0  0  0  0  0  0  0
    1.5356   -4.1862    0.0000 H   0  0  0  0  0  0  0  0  0  0  0  0
   -1.3454   -5.2412    0.0000 H   0  0  0  0  0  0  0  0  0  0  0  0
   -0.0354   -7.9877    0.0000 H   0  0  0  0  0  0  0  0  0  0  0  0
    2.6138   -8.7724    0.0000 H   0  0  0  0  0  0  0  0  0  0  0  0
    3.6533   -8.2427    0.0000 H   0  0  0  0  0  0  0  0  0  0  0  0
    3.1236   -7.2031    0.0000 H   0  0  0  0  0  0  0  0  0  0  0  0
   -4.8946   -3.7737    0.0000 H   0  0  0  0  0  0  0  0  0  0  0  0
   -6.3235   -2.9487    0.0000 H   0  0  0  0  0  0  0  0  0  0  0  0
   -4.8946   -0.4737    0.0000 H   0  0  0  0  0  0  0  0  0  0  0  0
   -3.4656   -1.2987    0.0000 H   0  0  0  0  0  0  0  0  0  0  0  0
  1  2  1  0  0  0  0
  2  3  2  0  0  0  0
  2  4  1  0  0  0  0
  4  5  1  0  0  0  0
  5  6  1  0  0  0  0
  6  7  4  0  0  0  0
  7  8  4  0  0  0  0
  8  9  4  0  0  0  0
  9 10  4  0  0  0  0
 10 11  4  0  0  0  0
  6 11  4  0  0  0  0
 10 12  1  0  0  0  0
 12 13  4  0  0  0  0
 13 14  4  0  0  0  0
 14 15  4  0  0  0  0
 15 16  4  0  0  0  0
 12 16  4  0  0  0  0
 14 17  1  0  0  0  0
 17 18  4  0  0  0  0
 18 19  4  0  0  0  0
 19 20  4  0  0  0  0
 20 21  4  0  0  0  0
 17 21  4  0  0  0  0
 19 22  1  0  0  0  0
  1 23  1  0  0  0  0
 23 24  4  0  0  0  0
 24 25  4  0  0  0  0
 25 26  4  0  0  0  0
 26 27  1  0  0  0  0
 26 28  4  0  0  0  0
 28 29  4  0  0  0  0
 23 29  4  0  0  0  0
  1 30  1  0  0  0  0
  4 31  1  0  0  0  0
  4 32  1  0  0  0  0
  8 33  1  0  0  0  0
  9 34  1  0  0  0  0
 16 35  1  0  0  0  0
 21 36  1  0  0  0  0
 22 37  1  0  0  0  0
 22 38  1  0  0  0  0
 22 39  1  0  0  0  0
 24 40  1  0  0  0  0
 25 41  1  0  0  0  0
 28 42  1  0  0  0  0
 29 43  1  0  0  0  0
M  END
> <Compound_name>
5

> <Standard Type>
IC50

> <Standard Relation>
'='

> <Standard Value>
3.539728922620685E13

> <Standard Units>
nM

> <Outcome>
Inactive

> <InChIKey>
JEZYTEDGOJCVQS-UHFFFAOYSA-N

> <Molecule ChEMBL ID>
CHEMBL209227

$$$$

  Mrv1817 04132013512D          

 33 34  0  0  0  0            999 V2000
    0.7145   -2.0625    0.0000 C   0  0  0  0  0  0  0  0  0  0  0  0
    1.4289   -2.4750    0.0000 C   0  0  0  0  0  0  0  0  0  0  0  0
    1.4289   -3.3000    0.0000 C   0  0  0  0  0  0  0  0  0  0  0  0
    0.7145   -3.7125    0.0000 C   0  0  0  0  0  0  0  0  0  0  0  0
   -0.0000   -3.3000    0.0000 C   0  0  0  0  0  0  0  0  0  0  0  0
   -0.0000   -2.4750    0.0000 C   0  0  0  0  0  0  0  0  0  0  0  0
    0.7145   -4.5375    0.0000 S   0  0  0  0  0  0  0  0  0  0  0  0
   -0.1105   -4.5375    0.0000 O   0  0  0  0  0  0  0  0  0  0  0  0
    1.5395   -4.5375    0.0000 O   0  0  0  0  0  0  0  0  0  0  0  0
    0.7145   -5.3625    0.0000 C   0  0  0  0  0  0  0  0  0  0  0  0
    1.4289   -5.7750    0.0000 N   0  0  0  0  0  0  0  0  0  0  0  0
    1.4289   -6.6000    0.0000 C   0  0  0  0  0  0  0  0  0  0  0  0
    0.7145   -7.0125    0.0000 C   0  0  0  0  0  0  0  0  0  0  0  0
   -0.0000   -6.6000    0.0000 C   0  0  0  0  0  0  0  0  0  0  0  0
   -0.0000   -5.7750    0.0000 C   0  0  0  0  0  0  0  0  0  0  0  0
   -0.7145   -5.3625    0.0000 C   0  0  0  0  0  0  0  0  0  0  0  0
   -1.4289   -4.9500    0.0000 N   0  0  0  0  0  0  0  0  0  0  0  0
   -0.7145   -7.0125    0.0000 C   0  0  0  0  0  0  0  0  0  0  0  0
    0.7145   -7.8375    0.0000 N   0  0  0  0  0  0  0  0  0  0  0  0
    1.4289   -8.2500    0.0000 O   0  0  0  0  0  0  0  0  0  0  0  0
   -0.0000   -8.2500    0.0000 O   0  0  0  0  0  0  0  0  0  0  0  0
    2.1434   -7.0125    0.0000 C   0  0  0  0  0  0  0  0  0  0  0  0
    0.7145   -1.2375    0.0000 H   0  0  0  0  0  0  0  0  0  0  0  0
    2.1434   -2.0625    0.0000 H   0  0  0  0  0  0  0  0  0  0  0  0
    2.1434   -3.7125    0.0000 H   0  0  0  0  0  0  0  0  0  0  0  0
   -0.7145   -3.7125    0.0000 H   0  0  0  0  0  0  0  0  0  0  0  0
   -0.7145   -2.0625    0.0000 H   0  0  0  0  0  0  0  0  0  0  0  0
   -1.1270   -6.2980    0.0000 H   0  0  0  0  0  0  0  0  0  0  0  0
   -1.4289   -7.4250    0.0000 H   0  0  0  0  0  0  0  0  0  0  0  0
   -0.3020   -7.7270    0.0000 H   0  0  0  0  0  0  0  0  0  0  0  0
    1.7309   -7.7270    0.0000 H   0  0  0  0  0  0  0  0  0  0  0  0
    2.8579   -7.4250    0.0000 H   0  0  0  0  0  0  0  0  0  0  0  0
    2.5559   -6.2980    0.0000 H   0  0  0  0  0  0  0  0  0  0  0  0
  1  2  4  0  0  0  0
  2  3  4  0  0  0  0
  3  4  4  0  0  0  0
  4  5  4  0  0  0  0
  5  6  4  0  0  0  0
  1  6  4  0  0  0  0
  4  7  1  0  0  0  0
  7  8  2  0  0  0  0
  7  9  2  0  0  0  0
  7 10  1  0  0  0  0
 10 11  4  0  0  0  0
 11 12  4  0  0  0  0
 12 13  4  0  0  0  0
 13 14  4  0  0  0  0
 14 15  4  0  0  0  0
 10 15  4  0  0  0  0
 15 16  1  0  0  0  0
 16 17  3  0  0  0  0
 14 18  1  0  0  0  0
 13 19  1  0  0  0  0
 19 20  2  0  0  0  0
 19 21  2  0  0  0  0
 12 22  1  0  0  0  0
  1 23  1  0  0  0  0
  2 24  1  0  0  0  0
  3 25  1  0  0  0  0
  5 26  1  0  0  0  0
  6 27  1  0  0  0  0
 18 28  1  0  0  0  0
 18 29  1  0  0  0  0
 18 30  1  0  0  0  0
 22 31  1  0  0  0  0
 22 32  1  0  0  0  0
 22 33  1  0  0  0  0
M  END
> <Compound_name>
7

> <Standard Type>
IC50

> <Standard Relation>
'='

> <Standard Value>
13000.0

> <Standard Units>
nM

> <Outcome>
Inactive

> <InChIKey>
JLRPBEAXLCQKGS-UHFFFAOYSA-N

> <Molecule ChEMBL ID>
CHEMBL212504

$$$$

  Mrv1817 04132013512D          

 81 83  0  0  0  0            999 V2000
    0.9849   -4.5466    0.0000 N   0  0  0  0  0  0  0  0  0  0  0  0
    1.2549   -5.3262    0.0000 C   0  0  0  0  0  0  0  0  0  0  0  0
    2.0651   -5.4821    0.0000 O   0  0  0  0  0  0  0  0  0  0  0  0
    0.7148   -5.9498    0.0000 C   0  0  0  0  0  0  0  0  0  0  0  0
   -0.0953   -5.7939    0.0000 N   0  0  0  0  0  0  0  0  0  0  0  0
   -0.3653   -5.0143    0.0000 C   0  0  0  0  0  0  0  0  0  0  0  0
    0.1747   -4.3907    0.0000 O   0  0  0  0  0  0  0  0  0  0  0  0
   -1.1755   -4.8584    0.0000 C   0  0  0  0  0  0  0  0  0  0  0  0
   -1.4455   -4.0789    0.0000 N   0  0  0  0  0  0  0  0  0  0  0  0
   -2.2557   -3.9230    0.0000 C   0  0  0  0  0  0  0  0  0  0  0  0
   -2.7957   -4.5466    0.0000 O   0  0  0  0  0  0  0  0  0  0  0  0
   -2.5257   -3.1434    0.0000 C   0  0  0  0  0  0  0  0  0  0  0  0
   -3.3151   -2.9037    0.0000 N   0  0  0  0  0  0  0  0  0  0  0  0
   -3.3310   -2.0788    0.0000 O   0  0  0  0  0  0  0  0  0  0  0  0
   -2.5515   -1.8088    0.0000 C   0  0  0  0  0  0  0  0  0  0  0  0
   -2.0538   -2.4667    0.0000 C   0  0  0  0  0  0  0  0  0  0  0  0
   -2.3117   -1.0194    0.0000 C   0  0  0  0  0  0  0  0  0  0  0  0
   -1.7156   -5.4821    0.0000 C   0  0  0  0  0  0  0  0  0  0  0  0
   -2.5257   -5.3262    0.0000 C   0  0  0  0  0  0  0  0  0  0  0  0
   -1.4455   -6.2616    0.0000 C   0  0  0  0  0  0  0  0  0  0  0  0
    0.9849   -6.7293    0.0000 C   0  0  0  0  0  0  0  0  0  0  0  0
    1.7950   -6.8853    0.0000 C   0  0  0  0  0  0  0  0  0  0  0  0
    2.3351   -6.2616    0.0000 C   0  0  0  0  0  0  0  0  0  0  0  0
    3.1452   -6.4175    0.0000 C   0  0  0  0  0  0  0  0  0  0  0  0
    3.4153   -7.1971    0.0000 C   0  0  0  0  0  0  0  0  0  0  0  0
    4.2254   -7.3530    0.0000 F   0  0  0  0  0  0  0  0  0  0  0  0
    2.8752   -7.8207    0.0000 C   0  0  0  0  0  0  0  0  0  0  0  0
    2.0651   -7.6648    0.0000 C   0  0  0  0  0  0  0  0  0  0  0  0
    1.5250   -3.9230    0.0000 C   0  0  0  0  0  0  0  0  0  0  0  0
    1.2549   -3.1434    0.0000 C   0  0  0  0  0  0  0  0  0  0  0  0
    0.4448   -2.9875    0.0000 C   0  0  0  0  0  0  0  0  0  0  0  0
    0.1747   -2.2079    0.0000 C   0  0  0  0  0  0  0  0  0  0  0  0
   -0.6354   -2.0520    0.0000 O   0  0  0  0  0  0  0  0  0  0  0  0
    0.7148   -1.5843    0.0000 O   0  0  0  0  0  0  0  0  0  0  0  0
    1.5250   -1.7402    0.0000 C   0  0  0  0  0  0  0  0  0  0  0  0
    2.0651   -1.1166    0.0000 C   0  0  0  0  0  0  0  0  0  0  0  0
    2.3351   -4.0789    0.0000 C   0  0  0  0  0  0  0  0  0  0  0  0
    2.8752   -3.4552    0.0000 C   0  0  0  0  0  0  0  0  0  0  0  0
    2.6881   -2.6517    0.0000 C   0  0  0  0  0  0  0  0  0  0  0  0
    1.9281   -2.3308    0.0000 O   0  0  0  0  0  0  0  0  0  0  0  0
    3.3945   -2.2255    0.0000 N   0  0  0  0  0  0  0  0  0  0  0  0
    4.0181   -2.7656    0.0000 C   0  0  0  0  0  0  0  0  0  0  0  0
    3.6972   -3.5256    0.0000 C   0  0  0  0  0  0  0  0  0  0  0  0
    0.4448   -5.1702    0.0000 H   0  0  0  0  0  0  0  0  0  0  0  0
    1.5250   -6.1057    0.0000 H   0  0  0  0  0  0  0  0  0  0  0  0
   -0.6354   -6.4175    0.0000 H   0  0  0  0  0  0  0  0  0  0  0  0
   -0.6354   -4.2348    0.0000 H   0  0  0  0  0  0  0  0  0  0  0  0
   -1.2896   -3.2687    0.0000 H   0  0  0  0  0  0  0  0  0  0  0  0
   -1.2289   -2.4508    0.0000 H   0  0  0  0  0  0  0  0  0  0  0  0
   -1.5223   -1.2591    0.0000 H   0  0  0  0  0  0  0  0  0  0  0  0
   -2.0720   -0.2300    0.0000 H   0  0  0  0  0  0  0  0  0  0  0  0
   -3.1011   -0.7796    0.0000 H   0  0  0  0  0  0  0  0  0  0  0  0
   -1.9856   -4.7025    0.0000 H   0  0  0  0  0  0  0  0  0  0  0  0
   -3.3358   -5.1702    0.0000 H   0  0  0  0  0  0  0  0  0  0  0  0
   -3.0658   -5.9498    0.0000 H   0  0  0  0  0  0  0  0  0  0  0  0
   -2.2557   -6.1057    0.0000 H   0  0  0  0  0  0  0  0  0  0  0  0
   -1.8691   -6.9696    0.0000 H   0  0  0  0  0  0  0  0  0  0  0  0
   -1.3149   -7.0762    0.0000 H   0  0  0  0  0  0  0  0  0  0  0  0
   -0.9054   -5.6380    0.0000 H   0  0  0  0  0  0  0  0  0  0  0  0
    0.2223   -7.0443    0.0000 H   0  0  0  0  0  0  0  0  0  0  0  0
    0.7821   -7.5290    0.0000 H   0  0  0  0  0  0  0  0  0  0  0  0
    2.8752   -5.6380    0.0000 H   0  0  0  0  0  0  0  0  0  0  0  0
    3.9248   -6.1475    0.0000 H   0  0  0  0  0  0  0  0  0  0  0  0
    3.1452   -8.6003    0.0000 H   0  0  0  0  0  0  0  0  0  0  0  0
    1.5250   -8.2885    0.0000 H   0  0  0  0  0  0  0  0  0  0  0  0
    0.7148   -3.7671    0.0000 H   0  0  0  0  0  0  0  0  0  0  0  0
    1.7950   -2.5198    0.0000 H   0  0  0  0  0  0  0  0  0  0  0  0
   -0.3348   -3.2575    0.0000 H   0  0  0  0  0  0  0  0  0  0  0  0
    0.9849   -2.3639    0.0000 H   0  0  0  0  0  0  0  0  0  0  0  0
    1.2549   -0.9607    0.0000 H   0  0  0  0  0  0  0  0  0  0  0  0
    2.5277   -1.7997    0.0000 H   0  0  0  0  0  0  0  0  0  0  0  0
    2.8446   -0.8465    0.0000 H   0  0  0  0  0  0  0  0  0  0  0  0
    2.0060   -0.2937    0.0000 H   0  0  0  0  0  0  0  0  0  0  0  0
    2.2266   -4.8967    0.0000 H   0  0  0  0  0  0  0  0  0  0  0  0
    2.9263   -4.6543    0.0000 H   0  0  0  0  0  0  0  0  0  0  0  0
    3.1857   -4.2196    0.0000 H   0  0  0  0  0  0  0  0  0  0  0  0
    3.8502   -1.5378    0.0000 H   0  0  0  0  0  0  0  0  0  0  0  0
    4.8154   -2.9776    0.0000 H   0  0  0  0  0  0  0  0  0  0  0  0
    4.6398   -2.2232    0.0000 H   0  0  0  0  0  0  0  0  0  0  0  0
    4.2148   -4.1680    0.0000 H   0  0  0  0  0  0  0  0  0  0  0  0
    4.5139   -3.6425    0.0000 H   0  0  0  0  0  0  0  0  0  0  0  0
  1  2  1  0  0  0  0
  2  3  2  0  0  0  0
  2  4  1  0  0  0  0
  4  5  1  0  0  0  0
  5  6  1  0  0  0  0
  6  7  2  0  0  0  0
  6  8  1  0  0  0  0
  8  9  1  0  0  0  0
  9 10  1  0  0  0  0
 10 11  2  0  0  0  0
 10 12  1  0  0  0  0
 12 13  4  0  0  0  0
 13 14  4  0  0  0  0
 14 15  4  0  0  0  0
 15 16  4  0  0  0  0
 12 16  4  0  0  0  0
 15 17  1  0  0  0  0
  8 18  1  0  0  0  0
 18 19  1  0  0  0  0
 18 20  1  0  0  0  0
  4 21  1  0  0  0  0
 21 22  1  0  0  0  0
 22 23  4  0  0  0  0
 23 24  4  0  0  0  0
 24 25  4  0  0  0  0
 25 26  1  0  0  0  0
 25 27  4  0  0  0  0
 27 28  4  0  0  0  0
 22 28  4  0  0  0  0
  1 29  1  0  0  0  0
 30 29  1  4  0  0  0
 30 31  2  0  0  0  0
 31 32  1  0  0  0  0
 32 33  2  0  0  0  0
 32 34  1  0  0  0  0
 34 35  1  0  0  0  0
 35 36  1  0  0  0  0
 29 37  1  0  0  0  0
 37 38  1  0  0  0  0
 38 39  1  0  0  0  0
 39 40  2  0  0  0  0
 39 41  1  0  0  0  0
 41 42  1  0  0  0  0
 42 43  1  0  0  0  0
 38 43  1  0  0  0  0
  1 44  1  0  0  0  0
  4 45  1  0  0  0  0
  5 46  1  0  0  0  0
  8 47  1  0  0  0  0
  9 48  1  0  0  0  0
 16 49  1  0  0  0  0
 17 50  1  0  0  0  0
 17 51  1  0  0  0  0
 17 52  1  0  0  0  0
 18 53  1  0  0  0  0
 19 54  1  0  0  0  0
 19 55  1  0  0  0  0
 19 56  1  0  0  0  0
 20 57  1  0  0  0  0
 20 58  1  0  0  0  0
 20 59  1  0  0  0  0
 21 60  1  0  0  0  0
 21 61  1  0  0  0  0
 23 62  1  0  0  0  0
 24 63  1  0  0  0  0
 27 64  1  0  0  0  0
 28 65  1  0  0  0  0
 29 66  1  0  0  0  0
 30 67  1  0  0  0  0
 31 68  1  0  0  0  0
 35 69  1  0  0  0  0
 35 70  1  0  0  0  0
 36 71  1  0  0  0  0
 36 72  1  0  0  0  0
 36 73  1  0  0  0  0
 37 74  1  0  0  0  0
 37 75  1  0  0  0  0
 38 76  1  0  0  0  0
 41 77  1  0  0  0  0
 42 78  1  0  0  0  0
 42 79  1  0  0  0  0
 43 80  1  0  0  0  0
 43 81  1  0  0  0  0
M  END
> <Compound_name>
1

> <Standard Type>
Ki

> <Standard Relation>
'>'

> <Standard Value>
10000.0

> <Standard Units>
nM

> <Outcome>
Inactive

> <InChIKey>
JSJRYDPMCHPLOL-UHFFFAOYNA-N

> <Molecule ChEMBL ID>
CHEMBL20636

$$$$

  Mrv1817 04132013512D          

 47 49  0  0  0  0            999 V2000
    0.7145   -2.0621    0.0000 N   0  0  0  0  0  0  0  0  0  0  0  0
    1.4289   -1.6496    0.0000 C   0  0  0  0  0  0  0  0  0  0  0  0
    1.4289   -0.8246    0.0000 O   0  0  0  0  0  0  0  0  0  0  0  0
    2.1434   -2.0621    0.0000 C   0  0  0  0  0  0  0  0  0  0  0  0
    2.8579   -1.6496    0.0000 S   0  0  0  0  0  0  0  0  0  0  0  0
    3.5724   -2.0621    0.0000 C   0  0  0  0  0  0  0  0  0  0  0  0
    4.2868   -1.6496    0.0000 N   0  0  0  0  0  0  0  0  0  0  0  0
    5.0013   -2.0621    0.0000 C   0  0  0  0  0  0  0  0  0  0  0  0
    5.7158   -1.6496    0.0000 O   0  0  0  0  0  0  0  0  0  0  0  0
    5.0013   -2.8871    0.0000 C   0  0  0  0  0  0  0  0  0  0  0  0
    4.2868   -3.2996    0.0000 C   0  0  0  0  0  0  0  0  0  0  0  0
    3.5724   -2.8871    0.0000 N   0  0  0  0  0  0  0  0  0  0  0  0
    4.2868   -4.1246    0.0000 C   0  0  0  0  0  0  0  0  0  0  0  0
    5.0013   -4.5371    0.0000 C   0  0  0  0  0  0  0  0  0  0  0  0
    5.0013   -5.3621    0.0000 C   0  0  0  0  0  0  0  0  0  0  0  0
    4.2868   -5.7746    0.0000 C   0  0  0  0  0  0  0  0  0  0  0  0
    3.5724   -5.3621    0.0000 C   0  0  0  0  0  0  0  0  0  0  0  0
    3.5724   -4.5371    0.0000 C   0  0  0  0  0  0  0  0  0  0  0  0
    0.0000   -1.6496    0.0000 C   0  0  0  0  0  0  0  0  0  0  0  0
   -0.7145   -2.0621    0.0000 C   0  0  0  0  0  0  0  0  0  0  0  0
   -1.4289   -1.6496    0.0000 C   0  0  0  0  0  0  0  0  0  0  0  0
   -1.4289   -0.8246    0.0000 C   0  0  0  0  0  0  0  0  0  0  0  0
   -2.1434   -0.4121    0.0000 O   0  0  0  0  0  0  0  0  0  0  0  0
   -2.8579   -0.8246    0.0000 C   0  0  0  0  0  0  0  0  0  0  0  0
   -0.7145   -0.4121    0.0000 C   0  0  0  0  0  0  0  0  0  0  0  0
   -0.7145    0.4129    0.0000 O   0  0  0  0  0  0  0  0  0  0  0  0
    0.0000    0.8254    0.0000 C   0  0  0  0  0  0  0  0  0  0  0  0
    0.0000   -0.8246    0.0000 C   0  0  0  0  0  0  0  0  0  0  0  0
    0.7145   -2.8871    0.0000 H   0  0  0  0  0  0  0  0  0  0  0  0
    1.7732   -2.7994    0.0000 H   0  0  0  0  0  0  0  0  0  0  0  0
    2.5137   -2.7994    0.0000 H   0  0  0  0  0  0  0  0  0  0  0  0
    5.7158   -3.2996    0.0000 H   0  0  0  0  0  0  0  0  0  0  0  0
    2.8579   -3.2996    0.0000 H   0  0  0  0  0  0  0  0  0  0  0  0
    5.7158   -4.1246    0.0000 H   0  0  0  0  0  0  0  0  0  0  0  0
    5.7158   -5.7746    0.0000 H   0  0  0  0  0  0  0  0  0  0  0  0
    4.2868   -6.5996    0.0000 H   0  0  0  0  0  0  0  0  0  0  0  0
    2.8579   -5.7746    0.0000 H   0  0  0  0  0  0  0  0  0  0  0  0
    2.8579   -4.1246    0.0000 H   0  0  0  0  0  0  0  0  0  0  0  0
   -0.7145   -2.8871    0.0000 H   0  0  0  0  0  0  0  0  0  0  0  0
   -2.1434   -2.0621    0.0000 H   0  0  0  0  0  0  0  0  0  0  0  0
   -3.2704   -0.1102    0.0000 H   0  0  0  0  0  0  0  0  0  0  0  0
   -3.5724   -1.2371    0.0000 H   0  0  0  0  0  0  0  0  0  0  0  0
   -2.4454   -1.5391    0.0000 H   0  0  0  0  0  0  0  0  0  0  0  0
    0.4125    0.1109    0.0000 H   0  0  0  0  0  0  0  0  0  0  0  0
    0.7145    1.2379    0.0000 H   0  0  0  0  0  0  0  0  0  0  0  0
   -0.4125    1.5398    0.0000 H   0  0  0  0  0  0  0  0  0  0  0  0
    0.7145   -0.4121    0.0000 H   0  0  0  0  0  0  0  0  0  0  0  0
  1  2  1  0  0  0  0
  2  3  2  0  0  0  0
  2  4  1  0  0  0  0
  4  5  1  0  0  0  0
  5  6  1  0  0  0  0
  6  7  2  0  0  0  0
  7  8  1  0  0  0  0
  8  9  2  0  0  0  0
  8 10  1  0  0  0  0
 10 11  2  0  0  0  0
 11 12  1  0  0  0  0
  6 12  1  0  0  0  0
 11 13  1  0  0  0  0
 13 14  4  0  0  0  0
 14 15  4  0  0  0  0
 15 16  4  0  0  0  0
 16 17  4  0  0  0  0
 17 18  4  0  0  0  0
 13 18  4  0  0  0  0
  1 19  1  0  0  0  0
 19 20  4  0  0  0  0
 20 21  4  0  0  0  0
 21 22  4  0  0  0  0
 22 23  1  0  0  0  0
 23 24  1  0  0  0  0
 22 25  4  0  0  0  0
 25 26  1  0  0  0  0
 26 27  1  0  0  0  0
 25 28  4  0  0  0  0
 19 28  4  0  0  0  0
  1 29  1  0  0  0  0
  4 30  1  0  0  0  0
  4 31  1  0  0  0  0
 10 32  1  0  0  0  0
 12 33  1  0  0  0  0
 14 34  1  0  0  0  0
 15 35  1  0  0  0  0
 16 36  1  0  0  0  0
 17 37  1  0  0  0  0
 18 38  1  0  0  0  0
 20 39  1  0  0  0  0
 21 40  1  0  0  0  0
 24 41  1  0  0  0  0
 24 42  1  0  0  0  0
 24 43  1  0  0  0  0
 27 44  1  0  0  0  0
 27 45  1  0  0  0  0
 27 46  1  0  0  0  0
 28 47  1  0  0  0  0
M  END
> <Compound_name>
12

> <Standard Type>
IC50

> <Standard Relation>
'='

> <Standard Value>
1.093880814224775E13

> <Standard Units>
nM

> <Outcome>
Inactive

> <InChIKey>
KIFWJAVYYRTXDP-UHFFFAOYSA-N

> <Molecule ChEMBL ID>
CHEMBL380470

$$$$

  Mrv1817 04132013512D          

 43 45  0  0  0  0            999 V2000
   -0.0279   -3.3063    0.0000 N   0  0  0  0  0  0  0  0  0  0  0  0
    0.6866   -3.7188    0.0000 C   0  0  0  0  0  0  0  0  0  0  0  0
    0.6866   -4.5438    0.0000 O   0  0  0  0  0  0  0  0  0  0  0  0
    1.4010   -3.3063    0.0000 C   0  0  0  0  0  0  0  0  0  0  0  0
    2.1155   -3.7188    0.0000 S   0  0  0  0  0  0  0  0  0  0  0  0
    2.8300   -3.3063    0.0000 C   0  0  0  0  0  0  0  0  0  0  0  0
    2.8300   -2.4813    0.0000 N   0  0  0  0  0  0  0  0  0  0  0  0
    3.5445   -2.0688    0.0000 C   0  0  0  0  0  0  0  0  0  0  0  0
    3.5445   -1.2438    0.0000 O   0  0  0  0  0  0  0  0  0  0  0  0
    4.2589   -2.4813    0.0000 C   0  0  0  0  0  0  0  0  0  0  0  0
    4.2589   -3.3063    0.0000 C   0  0  0  0  0  0  0  0  0  0  0  0
    3.5445   -3.7188    0.0000 N   0  0  0  0  0  0  0  0  0  0  0  0
    4.9734   -3.7188    0.0000 C   0  0  0  0  0  0  0  0  0  0  0  0
   -0.7424   -3.7188    0.0000 C   0  0  0  0  0  0  0  0  0  0  0  0
   -0.7424   -4.5438    0.0000 C   0  0  0  0  0  0  0  0  0  0  0  0
   -1.4568   -4.9563    0.0000 C   0  0  0  0  0  0  0  0  0  0  0  0
   -1.4568   -5.7813    0.0000 Cl  0  0  0  0  0  0  0  0  0  0  0  0
   -2.1713   -4.5438    0.0000 C   0  0  0  0  0  0  0  0  0  0  0  0
   -2.1713   -3.7188    0.0000 C   0  0  0  0  0  0  0  0  0  0  0  0
   -1.4568   -3.3063    0.0000 C   0  0  0  0  0  0  0  0  0  0  0  0
   -1.4568   -2.4813    0.0000 O   0  0  0  0  0  0  0  0  0  0  0  0
   -2.1713   -2.0688    0.0000 C   0  0  0  0  0  0  0  0  0  0  0  0
   -2.8858   -2.4813    0.0000 C   0  0  0  0  0  0  0  0  0  0  0  0
   -3.6002   -2.0688    0.0000 C   0  0  0  0  0  0  0  0  0  0  0  0
   -3.6002   -1.2438    0.0000 C   0  0  0  0  0  0  0  0  0  0  0  0
   -2.8858   -0.8313    0.0000 C   0  0  0  0  0  0  0  0  0  0  0  0
   -2.1713   -1.2438    0.0000 C   0  0  0  0  0  0  0  0  0  0  0  0
   -0.0279   -2.4813    0.0000 H   0  0  0  0  0  0  0  0  0  0  0  0
    1.7713   -2.5691    0.0000 H   0  0  0  0  0  0  0  0  0  0  0  0
    1.0308   -2.5691    0.0000 H   0  0  0  0  0  0  0  0  0  0  0  0
    4.9734   -2.0688    0.0000 H   0  0  0  0  0  0  0  0  0  0  0  0
    3.5445   -4.5438    0.0000 H   0  0  0  0  0  0  0  0  0  0  0  0
    4.5609   -4.4333    0.0000 H   0  0  0  0  0  0  0  0  0  0  0  0
    5.6879   -4.1313    0.0000 H   0  0  0  0  0  0  0  0  0  0  0  0
    5.3859   -3.0044    0.0000 H   0  0  0  0  0  0  0  0  0  0  0  0
   -0.0279   -4.9563    0.0000 H   0  0  0  0  0  0  0  0  0  0  0  0
   -2.8858   -4.9563    0.0000 H   0  0  0  0  0  0  0  0  0  0  0  0
   -2.8858   -3.3063    0.0000 H   0  0  0  0  0  0  0  0  0  0  0  0
   -2.1713   -2.8938    0.0000 H   0  0  0  0  0  0  0  0  0  0  0  0
   -4.3147   -2.4813    0.0000 H   0  0  0  0  0  0  0  0  0  0  0  0
   -4.3147   -0.8313    0.0000 H   0  0  0  0  0  0  0  0  0  0  0  0
   -2.8858   -0.0063    0.0000 H   0  0  0  0  0  0  0  0  0  0  0  0
   -1.4568   -0.8313    0.0000 H   0  0  0  0  0  0  0  0  0  0  0  0
  1  2  1  0  0  0  0
  2  3  2  0  0  0  0
  2  4  1  0  0  0  0
  4  5  1  0  0  0  0
  5  6  1  0  0  0  0
  6  7  2  0  0  0  0
  7  8  1  0  0  0  0
  8  9  2  0  0  0  0
  8 10  1  0  0  0  0
 10 11  2  0  0  0  0
 11 12  1  0  0  0  0
  6 12  1  0  0  0  0
 11 13  1  0  0  0  0
  1 14  1  0  0  0  0
 14 15  4  0  0  0  0
 15 16  4  0  0  0  0
 16 17  1  0  0  0  0
 16 18  4  0  0  0  0
 18 19  4  0  0  0  0
 19 20  4  0  0  0  0
 14 20  4  0  0  0  0
 20 21  1  0  0  0  0
 21 22  1  0  0  0  0
 22 23  4  0  0  0  0
 23 24  4  0  0  0  0
 24 25  4  0  0  0  0
 25 26  4  0  0  0  0
 26 27  4  0  0  0  0
 22 27  4  0  0  0  0
  1 28  1  0  0  0  0
  4 29  1  0  0  0  0
  4 30  1  0  0  0  0
 10 31  1  0  0  0  0
 12 32  1  0  0  0  0
 13 33  1  0  0  0  0
 13 34  1  0  0  0  0
 13 35  1  0  0  0  0
 15 36  1  0  0  0  0
 18 37  1  0  0  0  0
 19 38  1  0  0  0  0
 23 39  1  0  0  0  0
 24 40  1  0  0  0  0
 25 41  1  0  0  0  0
 26 42  1  0  0  0  0
 27 43  1  0  0  0  0
M  END
> <Compound_name>
15

> <Standard Type>
IC50

> <Standard Relation>
'='

> <Standard Value>
5.00000005E12

> <Standard Units>
nM

> <Outcome>
Inactive

> <InChIKey>
KROPIDGCKMSLKK-UHFFFAOYSA-N

> <Molecule ChEMBL ID>
CHEMBL207207

$$$$

  Mrv1817 04132013512D          

 44 47  0  0  0  0            999 V2000
   -3.4656   -2.9487    0.0000 N   0  0  0  0  0  0  0  0  0  0  0  0
   -2.7512   -2.5362    0.0000 C   0  0  0  0  0  0  0  0  0  0  0  0
   -2.7512   -1.7112    0.0000 O   0  0  0  0  0  0  0  0  0  0  0  0
   -2.0367   -2.9487    0.0000 C   0  0  0  0  0  0  0  0  0  0  0  0
   -1.3222   -2.5362    0.0000 S   0  0  0  0  0  0  0  0  0  0  0  0
   -0.6078   -2.9487    0.0000 C   0  0  0  0  0  0  0  0  0  0  0  0
    0.1067   -2.5362    0.0000 N   0  0  0  0  0  0  0  0  0  0  0  0
    0.8212   -2.9487    0.0000 C   0  0  0  0  0  0  0  0  0  0  0  0
    0.8212   -3.7737    0.0000 C   0  0  0  0  0  0  0  0  0  0  0  0
    0.1067   -4.1862    0.0000 C   0  0  0  0  0  0  0  0  0  0  0  0
   -0.6078   -3.7737    0.0000 N   0  0  0  0  0  0  0  0  0  0  0  0
    0.1067   -5.0112    0.0000 C   0  0  0  0  0  0  0  0  0  0  0  0
    0.7741   -5.4961    0.0000 N   0  0  0  0  0  0  0  0  0  0  0  0
    0.5192   -6.2808    0.0000 C   0  0  0  0  0  0  0  0  0  0  0  0
   -0.3058   -6.2808    0.0000 S   0  0  0  0  0  0  0  0  0  0  0  0
   -0.5607   -5.4961    0.0000 C   0  0  0  0  0  0  0  0  0  0  0  0
    1.0041   -6.9482    0.0000 C   0  0  0  0  0  0  0  0  0  0  0  0
    1.8246   -6.8620    0.0000 C   0  0  0  0  0  0  0  0  0  0  0  0
    2.3095   -7.5294    0.0000 C   0  0  0  0  0  0  0  0  0  0  0  0
    1.9740   -8.2831    0.0000 C   0  0  0  0  0  0  0  0  0  0  0  0
    1.1535   -8.3693    0.0000 C   0  0  0  0  0  0  0  0  0  0  0  0
    0.6686   -7.7019    0.0000 C   0  0  0  0  0  0  0  0  0  0  0  0
   -4.1801   -2.5362    0.0000 C   0  0  0  0  0  0  0  0  0  0  0  0
   -4.8946   -2.9487    0.0000 C   0  0  0  0  0  0  0  0  0  0  0  0
   -5.6091   -2.5362    0.0000 C   0  0  0  0  0  0  0  0  0  0  0  0
   -6.3235   -2.9487    0.0000 Cl  0  0  0  0  0  0  0  0  0  0  0  0
   -5.6091   -1.7112    0.0000 C   0  0  0  0  0  0  0  0  0  0  0  0
   -4.8946   -1.2987    0.0000 C   0  0  0  0  0  0  0  0  0  0  0  0
   -4.8946   -0.4737    0.0000 Cl  0  0  0  0  0  0  0  0  0  0  0  0
   -4.1801   -1.7112    0.0000 C   0  0  0  0  0  0  0  0  0  0  0  0
   -3.4656   -3.7737    0.0000 H   0  0  0  0  0  0  0  0  0  0  0  0
   -2.4070   -3.6860    0.0000 H   0  0  0  0  0  0  0  0  0  0  0  0
   -1.6664   -3.6860    0.0000 H   0  0  0  0  0  0  0  0  0  0  0  0
    1.5357   -2.5362    0.0000 H   0  0  0  0  0  0  0  0  0  0  0  0
    1.5357   -4.1862    0.0000 H   0  0  0  0  0  0  0  0  0  0  0  0
   -1.3454   -5.2412    0.0000 H   0  0  0  0  0  0  0  0  0  0  0  0
    2.1602   -6.1083    0.0000 H   0  0  0  0  0  0  0  0  0  0  0  0
    3.1300   -7.4432    0.0000 H   0  0  0  0  0  0  0  0  0  0  0  0
    2.4589   -8.9505    0.0000 H   0  0  0  0  0  0  0  0  0  0  0  0
    0.8179   -9.1230    0.0000 H   0  0  0  0  0  0  0  0  0  0  0  0
   -0.1519   -7.7881    0.0000 H   0  0  0  0  0  0  0  0  0  0  0  0
   -4.8946   -3.7737    0.0000 H   0  0  0  0  0  0  0  0  0  0  0  0
   -6.3235   -1.2987    0.0000 H   0  0  0  0  0  0  0  0  0  0  0  0
   -3.4656   -1.2987    0.0000 H   0  0  0  0  0  0  0  0  0  0  0  0
  1  2  1  0  0  0  0
  2  3  2  0  0  0  0
  2  4  1  0  0  0  0
  4  5  1  0  0  0  0
  5  6  1  0  0  0  0
  6  7  4  0  0  0  0
  7  8  4  0  0  0  0
  8  9  4  0  0  0  0
  9 10  4  0  0  0  0
 10 11  4  0  0  0  0
  6 11  4  0  0  0  0
 10 12  1  0  0  0  0
 12 13  4  0  0  0  0
 13 14  4  0  0  0  0
 14 15  4  0  0  0  0
 15 16  4  0  0  0  0
 12 16  4  0  0  0  0
 14 17  1  0  0  0  0
 17 18  4  0  0  0  0
 18 19  4  0  0  0  0
 19 20  4  0  0  0  0
 20 21  4  0  0  0  0
 21 22  4  0  0  0  0
 17 22  4  0  0  0  0
  1 23  1  0  0  0  0
 23 24  4  0  0  0  0
 24 25  4  0  0  0  0
 25 26  1  0  0  0  0
 25 27  4  0  0  0  0
 27 28  4  0  0  0  0
 28 29  1  0  0  0  0
 28 30  4  0  0  0  0
 23 30  4  0  0  0  0
  1 31  1  0  0  0  0
  4 32  1  0  0  0  0
  4 33  1  0  0  0  0
  8 34  1  0  0  0  0
  9 35  1  0  0  0  0
 16 36  1  0  0  0  0
 18 37  1  0  0  0  0
 19 38  1  0  0  0  0
 20 39  1  0  0  0  0
 21 40  1  0  0  0  0
 22 41  1  0  0  0  0
 24 42  1  0  0  0  0
 27 43  1  0  0  0  0
 30 44  1  0  0  0  0
M  END
> <Compound_name>
1

> <Standard Type>
IC50

> <Standard Relation>
'='

> <Standard Value>
1.655655607427955E14

> <Standard Units>
nM

> <Outcome>
Inactive

> <InChIKey>
LILOEJREEQFTPM-UHFFFAOYSA-N

> <Molecule ChEMBL ID>
CHEMBL208732

$$$$

  Mrv1817 04132013512D          

 28 30  0  0  0  0            999 V2000
    1.1387   -1.3654    0.0000 C   0  0  0  0  0  0  0  0  0  0  0  0
    0.6538   -0.6979    0.0000 C   0  0  0  0  0  0  0  0  0  0  0  0
    1.1387   -0.0305    0.0000 N   0  0  0  0  0  0  0  0  0  0  0  0
    1.9233   -0.2854    0.0000 C   0  0  0  0  0  0  0  0  0  0  0  0
    2.6378    0.1271    0.0000 C   0  0  0  0  0  0  0  0  0  0  0  0
    3.3523   -0.2854    0.0000 C   0  0  0  0  0  0  0  0  0  0  0  0
    3.3523   -1.1104    0.0000 C   0  0  0  0  0  0  0  0  0  0  0  0
    2.6378   -1.5229    0.0000 C   0  0  0  0  0  0  0  0  0  0  0  0
    1.9233   -1.1104    0.0000 C   0  0  0  0  0  0  0  0  0  0  0  0
   -0.1712   -0.6979    0.0000 C   0  0  0  0  0  0  0  0  0  0  0  0
   -0.5837    0.0165    0.0000 O   0  0  0  0  0  0  0  0  0  0  0  0
   -0.5837   -1.4124    0.0000 O   0  0  0  0  0  0  0  0  0  0  0  0
   -1.4087   -1.4124    0.0000 C   0  0  0  0  0  0  0  0  0  0  0  0
   -1.8212   -2.1269    0.0000 C   0  0  0  0  0  0  0  0  0  0  0  0
   -2.6462   -2.1269    0.0000 N   0  0  0  0  0  0  0  0  0  0  0  0
   -3.0587   -1.4124    0.0000 C   0  0  0  0  0  0  0  0  0  0  0  0
   -2.6462   -0.6979    0.0000 C   0  0  0  0  0  0  0  0  0  0  0  0
   -3.0587    0.0165    0.0000 Cl  0  0  0  0  0  0  0  0  0  0  0  0
   -1.8212   -0.6979    0.0000 C   0  0  0  0  0  0  0  0  0  0  0  0
    0.8838   -2.1500    0.0000 H   0  0  0  0  0  0  0  0  0  0  0  0
    0.8838    0.7541    0.0000 H   0  0  0  0  0  0  0  0  0  0  0  0
    2.6378    0.9521    0.0000 H   0  0  0  0  0  0  0  0  0  0  0  0
    4.0668    0.1271    0.0000 H   0  0  0  0  0  0  0  0  0  0  0  0
    4.0668   -1.5229    0.0000 H   0  0  0  0  0  0  0  0  0  0  0  0
    2.6378   -2.3479    0.0000 H   0  0  0  0  0  0  0  0  0  0  0  0
   -1.4087   -2.8413    0.0000 H   0  0  0  0  0  0  0  0  0  0  0  0
   -3.8837   -1.4124    0.0000 H   0  0  0  0  0  0  0  0  0  0  0  0
   -1.4087    0.0165    0.0000 H   0  0  0  0  0  0  0  0  0  0  0  0
  1  2  4  0  0  0  0
  2  3  4  0  0  0  0
  3  4  4  0  0  0  0
  4  5  4  0  0  0  0
  5  6  4  0  0  0  0
  6  7  4  0  0  0  0
  7  8  4  0  0  0  0
  8  9  4  0  0  0  0
  1  9  4  0  0  0  0
  4  9  4  0  0  0  0
  2 10  1  0  0  0  0
 10 11  2  0  0  0  0
 10 12  1  0  0  0  0
 12 13  1  0  0  0  0
 13 14  4  0  0  0  0
 14 15  4  0  0  0  0
 15 16  4  0  0  0  0
 16 17  4  0  0  0  0
 17 18  1  0  0  0  0
 17 19  4  0  0  0  0
 13 19  4  0  0  0  0
  1 20  1  0  0  0  0
  3 21  1  0  0  0  0
  5 22  1  0  0  0  0
  6 23  1  0  0  0  0
  7 24  1  0  0  0  0
  8 25  1  0  0  0  0
 14 26  1  0  0  0  0
 16 27  1  0  0  0  0
 19 28  1  0  0  0  0
M  END
> <Compound_name>
48

> <Standard Type>
IC50

> <Standard Relation>
'='

> <Standard Value>
65.0

> <Standard Units>
nM

> <Outcome>
Active

> <InChIKey>
LJTINUKMKJKLBT-UHFFFAOYSA-N

> <Molecule ChEMBL ID>
CHEMBL225515

$$$$

  Mrv1817 04132013512D          

 32 35  0  0  0  0            999 V2000
   -0.5367   -1.7691    0.0000 C   0  0  0  0  0  0  0  0  0  0  0  0
    0.0764   -2.3211    0.0000 C   0  0  0  0  0  0  0  0  0  0  0  0
   -0.2591   -3.0748    0.0000 S   0  0  0  0  0  0  0  0  0  0  0  0
   -1.0796   -2.9886    0.0000 C   0  0  0  0  0  0  0  0  0  0  0  0
   -1.6927   -3.5406    0.0000 C   0  0  0  0  0  0  0  0  0  0  0  0
   -2.4773   -3.2856    0.0000 C   0  0  0  0  0  0  0  0  0  0  0  0
   -2.6488   -2.4787    0.0000 C   0  0  0  0  0  0  0  0  0  0  0  0
   -2.0357   -1.9266    0.0000 C   0  0  0  0  0  0  0  0  0  0  0  0
   -1.2511   -2.1816    0.0000 C   0  0  0  0  0  0  0  0  0  0  0  0
    0.8834   -2.1496    0.0000 C   0  0  0  0  0  0  0  0  0  0  0  0
    1.1384   -1.3650    0.0000 N   0  0  0  0  0  0  0  0  0  0  0  0
    0.6534   -0.6975    0.0000 C   0  0  0  0  0  0  0  0  0  0  0  0
   -0.1716   -0.6975    0.0000 O   0  0  0  0  0  0  0  0  0  0  0  0
    1.1384   -0.0301    0.0000 C   0  0  0  0  0  0  0  0  0  0  0  0
    0.8834    0.7545    0.0000 O   0  0  0  0  0  0  0  0  0  0  0  0
    1.9230   -0.2850    0.0000 C   0  0  0  0  0  0  0  0  0  0  0  0
    2.6374    0.1275    0.0000 C   0  0  0  0  0  0  0  0  0  0  0  0
    3.3519   -0.2850    0.0000 C   0  0  0  0  0  0  0  0  0  0  0  0
    4.0664    0.1275    0.0000 I   0  0  0  0  0  0  0  0  0  0  0  0
    3.3519   -1.1100    0.0000 C   0  0  0  0  0  0  0  0  0  0  0  0
    2.6374   -1.5225    0.0000 C   0  0  0  0  0  0  0  0  0  0  0  0
    1.9230   -1.1100    0.0000 C   0  0  0  0  0  0  0  0  0  0  0  0
   -0.4504   -0.9486    0.0000 H   0  0  0  0  0  0  0  0  0  0  0  0
   -1.5212   -4.3476    0.0000 H   0  0  0  0  0  0  0  0  0  0  0  0
   -3.0904   -3.8377    0.0000 H   0  0  0  0  0  0  0  0  0  0  0  0
   -3.4335   -2.2237    0.0000 H   0  0  0  0  0  0  0  0  0  0  0  0
   -2.2073   -1.1197    0.0000 H   0  0  0  0  0  0  0  0  0  0  0  0
    1.1016   -2.9452    0.0000 H   0  0  0  0  0  0  0  0  0  0  0  0
    1.6519   -2.4497    0.0000 H   0  0  0  0  0  0  0  0  0  0  0  0
    2.6374    0.9525    0.0000 H   0  0  0  0  0  0  0  0  0  0  0  0
    4.0664   -1.5225    0.0000 H   0  0  0  0  0  0  0  0  0  0  0  0
    2.6374   -2.3475    0.0000 H   0  0  0  0  0  0  0  0  0  0  0  0
  1  2  4  0  0  0  0
  2  3  4  0  0  0  0
  3  4  4  0  0  0  0
  4  5  4  0  0  0  0
  5  6  4  0  0  0  0
  6  7  4  0  0  0  0
  7  8  4  0  0  0  0
  8  9  4  0  0  0  0
  1  9  4  0  0  0  0
  4  9  4  0  0  0  0
  2 10  1  0  0  0  0
 10 11  1  0  0  0  0
 11 12  1  0  0  0  0
 12 13  2  0  0  0  0
 12 14  1  0  0  0  0
 14 15  2  0  0  0  0
 14 16  1  0  0  0  0
 16 17  4  0  0  0  0
 17 18  4  0  0  0  0
 18 19  1  0  0  0  0
 18 20  4  0  0  0  0
 20 21  4  0  0  0  0
 21 22  4  0  0  0  0
 11 22  1  0  0  0  0
 16 22  4  0  0  0  0
  1 23  1  0  0  0  0
  5 24  1  0  0  0  0
  6 25  1  0  0  0  0
  7 26  1  0  0  0  0
  8 27  1  0  0  0  0
 10 28  1  0  0  0  0
 10 29  1  0  0  0  0
 17 30  1  0  0  0  0
 20 31  1  0  0  0  0
 21 32  1  0  0  0  0
M  END
> <Compound_name>
4o

> <Standard Type>
IC50

> <Standard Relation>
'='

> <Standard Value>
950.0

> <Standard Units>
nM

> <Outcome>
Active

> <InChIKey>
MAYSJMBSILUGEG-UHFFFAOYSA-N

> <Molecule ChEMBL ID>
CHEMBL190743

$$$$

  Mrv1817 04132013512D          

 49 51  0  0  0  0            999 V2000
   -1.4289   -5.7754    0.0000 N   0  0  0  0  0  0  0  0  0  0  0  0
   -0.7145   -5.3629    0.0000 S   0  0  0  0  0  0  0  0  0  0  0  0
   -0.3020   -6.0773    0.0000 O   0  0  0  0  0  0  0  0  0  0  0  0
   -1.1270   -4.6484    0.0000 O   0  0  0  0  0  0  0  0  0  0  0  0
    0.0000   -4.9504    0.0000 C   0  0  0  0  0  0  0  0  0  0  0  0
    0.0000   -4.1254    0.0000 C   0  0  0  0  0  0  0  0  0  0  0  0
    0.7145   -3.7129    0.0000 C   0  0  0  0  0  0  0  0  0  0  0  0
    1.4290   -4.1254    0.0000 C   0  0  0  0  0  0  0  0  0  0  0  0
    2.1434   -3.7129    0.0000 N   0  0  0  0  0  0  0  0  0  0  0  0
    2.8579   -4.1254    0.0000 C   0  0  0  0  0  0  0  0  0  0  0  0
    2.8579   -4.9504    0.0000 O   0  0  0  0  0  0  0  0  0  0  0  0
    3.5724   -3.7129    0.0000 C   0  0  0  0  0  0  0  0  0  0  0  0
    4.2868   -4.1254    0.0000 S   0  0  0  0  0  0  0  0  0  0  0  0
    5.0013   -3.7129    0.0000 C   0  0  0  0  0  0  0  0  0  0  0  0
    5.0013   -2.8879    0.0000 N   0  0  0  0  0  0  0  0  0  0  0  0
    5.7158   -2.4754    0.0000 C   0  0  0  0  0  0  0  0  0  0  0  0
    5.7158   -1.6504    0.0000 O   0  0  0  0  0  0  0  0  0  0  0  0
    6.4303   -2.8879    0.0000 C   0  0  0  0  0  0  0  0  0  0  0  0
    7.1447   -2.4754    0.0000 C   0  0  0  0  0  0  0  0  0  0  0  0
    7.8592   -2.0629    0.0000 N   0  0  0  0  0  0  0  0  0  0  0  0
    6.4303   -3.7129    0.0000 C   0  0  0  0  0  0  0  0  0  0  0  0
    5.7158   -4.1254    0.0000 N   0  0  0  0  0  0  0  0  0  0  0  0
    7.1447   -4.1254    0.0000 C   0  0  0  0  0  0  0  0  0  0  0  0
    7.8592   -3.7129    0.0000 C   0  0  0  0  0  0  0  0  0  0  0  0
    8.5737   -4.1254    0.0000 C   0  0  0  0  0  0  0  0  0  0  0  0
    8.5737   -4.9504    0.0000 C   0  0  0  0  0  0  0  0  0  0  0  0
    7.8592   -5.3629    0.0000 C   0  0  0  0  0  0  0  0  0  0  0  0
    7.8592   -6.1879    0.0000 O   0  0  0  0  0  0  0  0  0  0  0  0
    8.5737   -6.6004    0.0000 C   0  0  0  0  0  0  0  0  0  0  0  0
    7.1447   -4.9504    0.0000 C   0  0  0  0  0  0  0  0  0  0  0  0
    1.4290   -4.9504    0.0000 C   0  0  0  0  0  0  0  0  0  0  0  0
    0.7145   -5.3629    0.0000 C   0  0  0  0  0  0  0  0  0  0  0  0
   -2.1434   -5.3629    0.0000 H   0  0  0  0  0  0  0  0  0  0  0  0
   -1.4289   -6.6004    0.0000 H   0  0  0  0  0  0  0  0  0  0  0  0
   -0.7145   -3.7129    0.0000 H   0  0  0  0  0  0  0  0  0  0  0  0
    0.7145   -2.8879    0.0000 H   0  0  0  0  0  0  0  0  0  0  0  0
    2.1434   -2.8879    0.0000 H   0  0  0  0  0  0  0  0  0  0  0  0
    3.9426   -2.9756    0.0000 H   0  0  0  0  0  0  0  0  0  0  0  0
    3.2021   -2.9756    0.0000 H   0  0  0  0  0  0  0  0  0  0  0  0
    5.7158   -4.9504    0.0000 H   0  0  0  0  0  0  0  0  0  0  0  0
    7.8592   -2.8879    0.0000 H   0  0  0  0  0  0  0  0  0  0  0  0
    9.2881   -3.7129    0.0000 H   0  0  0  0  0  0  0  0  0  0  0  0
    9.2881   -5.3629    0.0000 H   0  0  0  0  0  0  0  0  0  0  0  0
    8.1612   -7.3148    0.0000 H   0  0  0  0  0  0  0  0  0  0  0  0
    9.2881   -7.0129    0.0000 H   0  0  0  0  0  0  0  0  0  0  0  0
    8.9862   -5.8859    0.0000 H   0  0  0  0  0  0  0  0  0  0  0  0
    6.4303   -5.3629    0.0000 H   0  0  0  0  0  0  0  0  0  0  0  0
    2.1434   -5.3629    0.0000 H   0  0  0  0  0  0  0  0  0  0  0  0
    0.7145   -6.1879    0.0000 H   0  0  0  0  0  0  0  0  0  0  0  0
  1  2  1  0  0  0  0
  2  3  2  0  0  0  0
  2  4  2  0  0  0  0
  2  5  1  0  0  0  0
  5  6  4  0  0  0  0
  6  7  4  0  0  0  0
  7  8  4  0  0  0  0
  8  9  1  0  0  0  0
  9 10  1  0  0  0  0
 10 11  2  0  0  0  0
 10 12  1  0  0  0  0
 12 13  1  0  0  0  0
 13 14  1  0  0  0  0
 14 15  2  0  0  0  0
 15 16  1  0  0  0  0
 16 17  2  0  0  0  0
 16 18  1  0  0  0  0
 18 19  1  0  0  0  0
 19 20  3  0  0  0  0
 18 21  2  0  0  0  0
 21 22  1  0  0  0  0
 14 22  1  0  0  0  0
 21 23  1  0  0  0  0
 23 24  4  0  0  0  0
 24 25  4  0  0  0  0
 25 26  4  0  0  0  0
 26 27  4  0  0  0  0
 27 28  1  0  0  0  0
 28 29  1  0  0  0  0
 27 30  4  0  0  0  0
 23 30  4  0  0  0  0
  8 31  4  0  0  0  0
 31 32  4  0  0  0  0
  5 32  4  0  0  0  0
  1 33  1  0  0  0  0
  1 34  1  0  0  0  0
  6 35  1  0  0  0  0
  7 36  1  0  0  0  0
  9 37  1  0  0  0  0
 12 38  1  0  0  0  0
 12 39  1  0  0  0  0
 22 40  1  0  0  0  0
 24 41  1  0  0  0  0
 25 42  1  0  0  0  0
 26 43  1  0  0  0  0
 29 44  1  0  0  0  0
 29 45  1  0  0  0  0
 29 46  1  0  0  0  0
 30 47  1  0  0  0  0
 31 48  1  0  0  0  0
 32 49  1  0  0  0  0
M  END
> <Compound_name>
10

> <Standard Type>
IC50

> <Standard Relation>
'='

> <Standard Value>
1.227354459842515E13

> <Standard Units>
nM

> <Outcome>
Inactive

> <InChIKey>
MFBIUOFKXQKEGQ-UHFFFAOYSA-N

> <Molecule ChEMBL ID>
CHEMBL210497

$$$$

  Mrv1817 04132013512D          

 27 29  0  0  0  0            999 V2000
    1.1387   -1.3654    0.0000 C   0  0  0  0  0  0  0  0  0  0  0  0
    0.6538   -0.6979    0.0000 C   0  0  0  0  0  0  0  0  0  0  0  0
    1.1387   -0.0305    0.0000 S   0  0  0  0  0  0  0  0  0  0  0  0
    1.9233   -0.2854    0.0000 C   0  0  0  0  0  0  0  0  0  0  0  0
    2.6378    0.1271    0.0000 C   0  0  0  0  0  0  0  0  0  0  0  0
    3.3523   -0.2854    0.0000 C   0  0  0  0  0  0  0  0  0  0  0  0
    3.3523   -1.1104    0.0000 C   0  0  0  0  0  0  0  0  0  0  0  0
    2.6378   -1.5229    0.0000 C   0  0  0  0  0  0  0  0  0  0  0  0
    1.9233   -1.1104    0.0000 C   0  0  0  0  0  0  0  0  0  0  0  0
   -0.1712   -0.6979    0.0000 C   0  0  0  0  0  0  0  0  0  0  0  0
   -0.5837    0.0165    0.0000 O   0  0  0  0  0  0  0  0  0  0  0  0
   -0.5837   -1.4124    0.0000 O   0  0  0  0  0  0  0  0  0  0  0  0
   -1.4087   -1.4124    0.0000 C   0  0  0  0  0  0  0  0  0  0  0  0
   -1.8212   -2.1269    0.0000 C   0  0  0  0  0  0  0  0  0  0  0  0
   -2.6462   -2.1269    0.0000 N   0  0  0  0  0  0  0  0  0  0  0  0
   -3.0587   -1.4124    0.0000 C   0  0  0  0  0  0  0  0  0  0  0  0
   -2.6462   -0.6979    0.0000 C   0  0  0  0  0  0  0  0  0  0  0  0
   -3.0587    0.0165    0.0000 Cl  0  0  0  0  0  0  0  0  0  0  0  0
   -1.8212   -0.6979    0.0000 C   0  0  0  0  0  0  0  0  0  0  0  0
    0.8838   -2.1500    0.0000 H   0  0  0  0  0  0  0  0  0  0  0  0
    2.6378    0.9521    0.0000 H   0  0  0  0  0  0  0  0  0  0  0  0
    4.0668    0.1271    0.0000 H   0  0  0  0  0  0  0  0  0  0  0  0
    4.0668   -1.5229    0.0000 H   0  0  0  0  0  0  0  0  0  0  0  0
    2.6378   -2.3479    0.0000 H   0  0  0  0  0  0  0  0  0  0  0  0
   -1.4087   -2.8413    0.0000 H   0  0  0  0  0  0  0  0  0  0  0  0
   -3.8837   -1.4124    0.0000 H   0  0  0  0  0  0  0  0  0  0  0  0
   -1.4087    0.0165    0.0000 H   0  0  0  0  0  0  0  0  0  0  0  0
  1  2  4  0  0  0  0
  2  3  4  0  0  0  0
  3  4  4  0  0  0  0
  4  5  4  0  0  0  0
  5  6  4  0  0  0  0
  6  7  4  0  0  0  0
  7  8  4  0  0  0  0
  8  9  4  0  0  0  0
  1  9  4  0  0  0  0
  4  9  4  0  0  0  0
  2 10  1  0  0  0  0
 10 11  2  0  0  0  0
 10 12  1  0  0  0  0
 12 13  1  0  0  0  0
 13 14  4  0  0  0  0
 14 15  4  0  0  0  0
 15 16  4  0  0  0  0
 16 17  4  0  0  0  0
 17 18  1  0  0  0  0
 17 19  4  0  0  0  0
 13 19  4  0  0  0  0
  1 20  1  0  0  0  0
  5 21  1  0  0  0  0
  6 22  1  0  0  0  0
  7 23  1  0  0  0  0
  8 24  1  0  0  0  0
 14 25  1  0  0  0  0
 16 26  1  0  0  0  0
 19 27  1  0  0  0  0
M  END
> <Compound_name>
49

> <Standard Type>
IC50

> <Standard Relation>
'='

> <Standard Value>
95.0

> <Standard Units>
nM

> <Outcome>
Active

> <InChIKey>
MNUHXGJUYTWVLU-UHFFFAOYSA-N

> <Molecule ChEMBL ID>
CHEMBL222893

$$$$

  Mrv1817 04132013512D          

 86 88  0  0  0  0            999 V2000
    0.6602   -5.1295    0.0000 N   0  0  0  0  0  0  0  0  0  0  0  0
    0.0366   -5.6696    0.0000 C   0  0  0  0  0  0  0  0  0  0  0  0
    0.1925   -6.4798    0.0000 O   0  0  0  0  0  0  0  0  0  0  0  0
   -0.7430   -5.3996    0.0000 O   0  0  0  0  0  0  0  0  0  0  0  0
   -1.3666   -5.9397    0.0000 C   0  0  0  0  0  0  0  0  0  0  0  0
   -2.1462   -5.6696    0.0000 C   0  0  0  0  0  0  0  0  0  0  0  0
   -2.7698   -6.2097    0.0000 C   0  0  0  0  0  0  0  0  0  0  0  0
   -3.5494   -5.9397    0.0000 C   0  0  0  0  0  0  0  0  0  0  0  0
   -3.7053   -5.1295    0.0000 C   0  0  0  0  0  0  0  0  0  0  0  0
   -3.0816   -4.5894    0.0000 C   0  0  0  0  0  0  0  0  0  0  0  0
   -2.3021   -4.8595    0.0000 C   0  0  0  0  0  0  0  0  0  0  0  0
    1.4398   -5.3996    0.0000 C   0  0  0  0  0  0  0  0  0  0  0  0
    2.0634   -4.8595    0.0000 C   0  0  0  0  0  0  0  0  0  0  0  0
    1.9075   -4.0493    0.0000 O   0  0  0  0  0  0  0  0  0  0  0  0
    2.8430   -5.1295    0.0000 N   0  0  0  0  0  0  0  0  0  0  0  0
    3.4666   -4.5894    0.0000 C   0  0  0  0  0  0  0  0  0  0  0  0
    4.2461   -4.8595    0.0000 C   0  0  0  0  0  0  0  0  0  0  0  0
    4.4021   -5.6696    0.0000 O   0  0  0  0  0  0  0  0  0  0  0  0
    4.8698   -4.3194    0.0000 N   0  0  0  0  0  0  0  0  0  0  0  0
    5.6493   -4.5894    0.0000 C   0  0  0  0  0  0  0  0  0  0  0  0
    6.2730   -4.0493    0.0000 C   0  0  0  0  0  0  0  0  0  0  0  0
    7.0525   -4.3194    0.0000 C   0  0  0  0  0  0  0  0  0  0  0  0
    7.6762   -3.7793    0.0000 C   0  0  0  0  0  0  0  0  0  0  0  0
    8.4557   -4.0493    0.0000 O   0  0  0  0  0  0  0  0  0  0  0  0
    7.5203   -2.9692    0.0000 O   0  0  0  0  0  0  0  0  0  0  0  0
    8.1439   -2.4291    0.0000 C   0  0  0  0  0  0  0  0  0  0  0  0
    7.9880   -1.6189    0.0000 C   0  0  0  0  0  0  0  0  0  0  0  0
    5.8052   -5.3996    0.0000 C   0  0  0  0  0  0  0  0  0  0  0  0
    6.5848   -5.6696    0.0000 C   0  0  0  0  0  0  0  0  0  0  0  0
    6.8245   -6.4590    0.0000 C   0  0  0  0  0  0  0  0  0  0  0  0
    6.3268   -7.1170    0.0000 O   0  0  0  0  0  0  0  0  0  0  0  0
    7.6494   -6.4749    0.0000 N   0  0  0  0  0  0  0  0  0  0  0  0
    7.9194   -5.6954    0.0000 C   0  0  0  0  0  0  0  0  0  0  0  0
    7.2615   -5.1977    0.0000 C   0  0  0  0  0  0  0  0  0  0  0  0
    3.3107   -3.7793    0.0000 C   0  0  0  0  0  0  0  0  0  0  0  0
    3.9343   -3.2392    0.0000 C   0  0  0  0  0  0  0  0  0  0  0  0
    3.7784   -2.4291    0.0000 C   0  0  0  0  0  0  0  0  0  0  0  0
    4.4021   -1.8890    0.0000 C   0  0  0  0  0  0  0  0  0  0  0  0
    5.1816   -2.1590    0.0000 C   0  0  0  0  0  0  0  0  0  0  0  0
    5.3375   -2.9692    0.0000 C   0  0  0  0  0  0  0  0  0  0  0  0
    4.7139   -3.5093    0.0000 C   0  0  0  0  0  0  0  0  0  0  0  0
    1.5957   -6.2097    0.0000 C   0  0  0  0  0  0  0  0  0  0  0  0
    2.3752   -6.4798    0.0000 C   0  0  0  0  0  0  0  0  0  0  0  0
    0.9720   -6.7498    0.0000 C   0  0  0  0  0  0  0  0  0  0  0  0
    0.5043   -4.3194    0.0000 H   0  0  0  0  0  0  0  0  0  0  0  0
   -1.5909   -6.7336    0.0000 H   0  0  0  0  0  0  0  0  0  0  0  0
   -0.8637   -6.5937    0.0000 H   0  0  0  0  0  0  0  0  0  0  0  0
   -2.6139   -7.0198    0.0000 H   0  0  0  0  0  0  0  0  0  0  0  0
   -4.1730   -6.4798    0.0000 H   0  0  0  0  0  0  0  0  0  0  0  0
   -4.4848   -4.8595    0.0000 H   0  0  0  0  0  0  0  0  0  0  0  0
   -3.2376   -3.7793    0.0000 H   0  0  0  0  0  0  0  0  0  0  0  0
   -1.6784   -4.3194    0.0000 H   0  0  0  0  0  0  0  0  0  0  0  0
    1.2838   -4.5894    0.0000 H   0  0  0  0  0  0  0  0  0  0  0  0
    2.9989   -5.9397    0.0000 H   0  0  0  0  0  0  0  0  0  0  0  0
    3.6225   -5.3996    0.0000 H   0  0  0  0  0  0  0  0  0  0  0  0
    4.0902   -4.0493    0.0000 H   0  0  0  0  0  0  0  0  0  0  0  0
    5.4934   -3.7793    0.0000 H   0  0  0  0  0  0  0  0  0  0  0  0
    6.5430   -3.2698    0.0000 H   0  0  0  0  0  0  0  0  0  0  0  0
    7.8378   -4.5724    0.0000 H   0  0  0  0  0  0  0  0  0  0  0  0
    8.7193   -3.0203    0.0000 H   0  0  0  0  0  0  0  0  0  0  0  0
    8.9617   -2.3205    0.0000 H   0  0  0  0  0  0  0  0  0  0  0  0
    8.7981   -1.4630    0.0000 H   0  0  0  0  0  0  0  0  0  0  0  0
    7.8321   -0.8088    0.0000 H   0  0  0  0  0  0  0  0  0  0  0  0
    7.1779   -1.7749    0.0000 H   0  0  0  0  0  0  0  0  0  0  0  0
    5.0055   -5.6023    0.0000 H   0  0  0  0  0  0  0  0  0  0  0  0
    5.4903   -6.1621    0.0000 H   0  0  0  0  0  0  0  0  0  0  0  0
    6.4715   -4.8524    0.0000 H   0  0  0  0  0  0  0  0  0  0  0  0
    8.1213   -7.1516    0.0000 H   0  0  0  0  0  0  0  0  0  0  0  0
    8.7290   -5.8543    0.0000 H   0  0  0  0  0  0  0  0  0  0  0  0
    8.5039   -5.1131    0.0000 H   0  0  0  0  0  0  0  0  0  0  0  0
    7.2455   -6.0225    0.0000 H   0  0  0  0  0  0  0  0  0  0  0  0
    8.0832   -5.1241    0.0000 H   0  0  0  0  0  0  0  0  0  0  0  0
    2.7352   -3.1881    0.0000 H   0  0  0  0  0  0  0  0  0  0  0  0
    2.4929   -3.8878    0.0000 H   0  0  0  0  0  0  0  0  0  0  0  0
    2.9989   -2.1590    0.0000 H   0  0  0  0  0  0  0  0  0  0  0  0
    4.2461   -1.0789    0.0000 H   0  0  0  0  0  0  0  0  0  0  0  0
    5.8052   -1.6189    0.0000 H   0  0  0  0  0  0  0  0  0  0  0  0
    6.1477   -2.8133    0.0000 H   0  0  0  0  0  0  0  0  0  0  0  0
    4.5580   -2.6991    0.0000 H   0  0  0  0  0  0  0  0  0  0  0  0
    2.2193   -5.6696    0.0000 H   0  0  0  0  0  0  0  0  0  0  0  0
    1.7516   -7.0198    0.0000 H   0  0  0  0  0  0  0  0  0  0  0  0
    2.5311   -7.2899    0.0000 H   0  0  0  0  0  0  0  0  0  0  0  0
    3.1548   -6.7498    0.0000 H   0  0  0  0  0  0  0  0  0  0  0  0
    0.4516   -7.3900    0.0000 H   0  0  0  0  0  0  0  0  0  0  0  0
    0.9849   -7.5747    0.0000 H   0  0  0  0  0  0  0  0  0  0  0  0
    0.8161   -5.9397    0.0000 H   0  0  0  0  0  0  0  0  0  0  0  0
  1  2  1  0  0  0  0
  2  3  2  0  0  0  0
  2  4  1  0  0  0  0
  4  5  1  0  0  0  0
  5  6  1  0  0  0  0
  6  7  4  0  0  0  0
  7  8  4  0  0  0  0
  8  9  4  0  0  0  0
  9 10  4  0  0  0  0
 10 11  4  0  0  0  0
  6 11  4  0  0  0  0
  1 12  1  0  0  0  0
 12 13  1  0  0  0  0
 13 14  2  0  0  0  0
 13 15  1  0  0  0  0
 15 16  1  0  0  0  0
 16 17  1  0  0  0  0
 17 18  2  0  0  0  0
 17 19  1  0  0  0  0
 19 20  1  0  0  0  0
 21 20  1  4  0  0  0
 21 22  2  0  0  0  0
 22 23  1  0  0  0  0
 23 24  2  0  0  0  0
 23 25  1  0  0  0  0
 25 26  1  0  0  0  0
 26 27  1  0  0  0  0
 20 28  1  0  0  0  0
 28 29  1  0  0  0  0
 29 30  1  0  0  0  0
 30 31  2  0  0  0  0
 30 32  1  0  0  0  0
 32 33  1  0  0  0  0
 33 34  1  0  0  0  0
 29 34  1  0  0  0  0
 16 35  1  0  0  0  0
 35 36  1  0  0  0  0
 36 37  4  0  0  0  0
 37 38  4  0  0  0  0
 38 39  4  0  0  0  0
 39 40  4  0  0  0  0
 40 41  4  0  0  0  0
 36 41  4  0  0  0  0
 12 42  1  0  0  0  0
 42 43  1  0  0  0  0
 42 44  1  0  0  0  0
  1 45  1  0  0  0  0
  5 46  1  0  0  0  0
  5 47  1  0  0  0  0
  7 48  1  0  0  0  0
  8 49  1  0  0  0  0
  9 50  1  0  0  0  0
 10 51  1  0  0  0  0
 11 52  1  0  0  0  0
 12 53  1  0  0  0  0
 15 54  1  0  0  0  0
 16 55  1  0  0  0  0
 19 56  1  0  0  0  0
 20 57  1  0  0  0  0
 21 58  1  0  0  0  0
 22 59  1  0  0  0  0
 26 60  1  0  0  0  0
 26 61  1  0  0  0  0
 27 62  1  0  0  0  0
 27 63  1  0  0  0  0
 27 64  1  0  0  0  0
 28 65  1  0  0  0  0
 28 66  1  0  0  0  0
 29 67  1  0  0  0  0
 32 68  1  0  0  0  0
 33 69  1  0  0  0  0
 33 70  1  0  0  0  0
 34 71  1  0  0  0  0
 34 72  1  0  0  0  0
 35 73  1  0  0  0  0
 35 74  1  0  0  0  0
 37 75  1  0  0  0  0
 38 76  1  0  0  0  0
 39 77  1  0  0  0  0
 40 78  1  0  0  0  0
 41 79  1  0  0  0  0
 42 80  1  0  0  0  0
 43 81  1  0  0  0  0
 43 82  1  0  0  0  0
 43 83  1  0  0  0  0
 44 84  1  0  0  0  0
 44 85  1  0  0  0  0
 44 86  1  0  0  0  0
M  END
> <Compound_name>
2

> <Standard Type>
Ki

> <Standard Relation>
'='

> <Standard Value>
2260.0

> <Standard Units>
nM

> <Outcome>
Active

> <InChIKey>
MQOSRSSZYUXZNH-UHFFFAOYNA-N

> <Molecule ChEMBL ID>
CHEMBL277716

$$$$

  Mrv1817 04132013512D          

 51 54  0  0  0  0            999 V2000
   -3.4656   -2.9488    0.0000 N   0  0  0  0  0  0  0  0  0  0  0  0
   -2.7512   -2.5363    0.0000 C   0  0  0  0  0  0  0  0  0  0  0  0
   -2.7512   -1.7113    0.0000 O   0  0  0  0  0  0  0  0  0  0  0  0
   -2.0367   -2.9488    0.0000 C   0  0  0  0  0  0  0  0  0  0  0  0
   -1.3222   -2.5363    0.0000 S   0  0  0  0  0  0  0  0  0  0  0  0
   -0.6078   -2.9488    0.0000 C   0  0  0  0  0  0  0  0  0  0  0  0
    0.1067   -2.5363    0.0000 N   0  0  0  0  0  0  0  0  0  0  0  0
    0.8212   -2.9488    0.0000 C   0  0  0  0  0  0  0  0  0  0  0  0
    0.8212   -3.7738    0.0000 C   0  0  0  0  0  0  0  0  0  0  0  0
    0.1067   -4.1863    0.0000 C   0  0  0  0  0  0  0  0  0  0  0  0
   -0.6078   -3.7738    0.0000 N   0  0  0  0  0  0  0  0  0  0  0  0
    0.1067   -5.0113    0.0000 C   0  0  0  0  0  0  0  0  0  0  0  0
    0.7741   -5.4962    0.0000 C   0  0  0  0  0  0  0  0  0  0  0  0
    1.5588   -5.2412    0.0000 S   0  0  0  0  0  0  0  0  0  0  0  0
    2.1719   -5.7933    0.0000 C   0  0  0  0  0  0  0  0  0  0  0  0
    0.5192   -6.2808    0.0000 S   0  0  0  0  0  0  0  0  0  0  0  0
   -0.3058   -6.2808    0.0000 C   0  0  0  0  0  0  0  0  0  0  0  0
   -0.7907   -6.9482    0.0000 C   0  0  0  0  0  0  0  0  0  0  0  0
   -0.5358   -7.7329    0.0000 N   0  0  0  0  0  0  0  0  0  0  0  0
   -1.2032   -8.2178    0.0000 C   0  0  0  0  0  0  0  0  0  0  0  0
   -1.8707   -7.7329    0.0000 C   0  0  0  0  0  0  0  0  0  0  0  0
   -1.6157   -6.9482    0.0000 S   0  0  0  0  0  0  0  0  0  0  0  0
   -1.2032   -9.0428    0.0000 C   0  0  0  0  0  0  0  0  0  0  0  0
   -0.5607   -5.4962    0.0000 C   0  0  0  0  0  0  0  0  0  0  0  0
   -1.3454   -5.2412    0.0000 C   0  0  0  0  0  0  0  0  0  0  0  0
   -4.1801   -2.5363    0.0000 C   0  0  0  0  0  0  0  0  0  0  0  0
   -4.8946   -2.9488    0.0000 C   0  0  0  0  0  0  0  0  0  0  0  0
   -5.6091   -2.5363    0.0000 C   0  0  0  0  0  0  0  0  0  0  0  0
   -5.6091   -1.7113    0.0000 C   0  0  0  0  0  0  0  0  0  0  0  0
   -4.8946   -1.2988    0.0000 C   0  0  0  0  0  0  0  0  0  0  0  0
   -4.1801   -1.7113    0.0000 C   0  0  0  0  0  0  0  0  0  0  0  0
   -3.4656   -1.2988    0.0000 Cl  0  0  0  0  0  0  0  0  0  0  0  0
   -3.4656   -3.7738    0.0000 H   0  0  0  0  0  0  0  0  0  0  0  0
   -2.4070   -3.6860    0.0000 H   0  0  0  0  0  0  0  0  0  0  0  0
   -1.6664   -3.6860    0.0000 H   0  0  0  0  0  0  0  0  0  0  0  0
    1.5356   -2.5363    0.0000 H   0  0  0  0  0  0  0  0  0  0  0  0
    1.5356   -4.1863    0.0000 H   0  0  0  0  0  0  0  0  0  0  0  0
    1.6198   -6.4064    0.0000 H   0  0  0  0  0  0  0  0  0  0  0  0
    2.7850   -6.3453    0.0000 H   0  0  0  0  0  0  0  0  0  0  0  0
    2.7239   -5.1802    0.0000 H   0  0  0  0  0  0  0  0  0  0  0  0
   -2.6553   -7.9878    0.0000 H   0  0  0  0  0  0  0  0  0  0  0  0
   -2.0282   -9.0428    0.0000 H   0  0  0  0  0  0  0  0  0  0  0  0
   -1.2032   -9.8678    0.0000 H   0  0  0  0  0  0  0  0  0  0  0  0
   -0.3782   -9.0428    0.0000 H   0  0  0  0  0  0  0  0  0  0  0  0
   -1.0904   -4.4566    0.0000 H   0  0  0  0  0  0  0  0  0  0  0  0
   -2.1300   -4.9863    0.0000 H   0  0  0  0  0  0  0  0  0  0  0  0
   -1.6003   -6.0259    0.0000 H   0  0  0  0  0  0  0  0  0  0  0  0
   -4.8946   -3.7738    0.0000 H   0  0  0  0  0  0  0  0  0  0  0  0
   -6.3235   -2.9488    0.0000 H   0  0  0  0  0  0  0  0  0  0  0  0
   -6.3235   -1.2988    0.0000 H   0  0  0  0  0  0  0  0  0  0  0  0
   -4.8946   -0.4738    0.0000 H   0  0  0  0  0  0  0  0  0  0  0  0
  1  2  1  0  0  0  0
  2  3  2  0  0  0  0
  2  4  1  0  0  0  0
  4  5  1  0  0  0  0
  5  6  1  0  0  0  0
  6  7  4  0  0  0  0
  7  8  4  0  0  0  0
  8  9  4  0  0  0  0
  9 10  4  0  0  0  0
 10 11  4  0  0  0  0
  6 11  4  0  0  0  0
 10 12  1  0  0  0  0
 12 13  4  0  0  0  0
 13 14  1  0  0  0  0
 14 15  1  0  0  0  0
 13 16  4  0  0  0  0
 16 17  4  0  0  0  0
 17 18  1  0  0  0  0
 18 19  4  0  0  0  0
 19 20  4  0  0  0  0
 20 21  4  0  0  0  0
 21 22  4  0  0  0  0
 18 22  4  0  0  0  0
 20 23  1  0  0  0  0
 17 24  4  0  0  0  0
 12 24  4  0  0  0  0
 24 25  1  0  0  0  0
  1 26  1  0  0  0  0
 26 27  4  0  0  0  0
 27 28  4  0  0  0  0
 28 29  4  0  0  0  0
 29 30  4  0  0  0  0
 30 31  4  0  0  0  0
 26 31  4  0  0  0  0
 31 32  1  0  0  0  0
  1 33  1  0  0  0  0
  4 34  1  0  0  0  0
  4 35  1  0  0  0  0
  8 36  1  0  0  0  0
  9 37  1  0  0  0  0
 15 38  1  0  0  0  0
 15 39  1  0  0  0  0
 15 40  1  0  0  0  0
 21 41  1  0  0  0  0
 23 42  1  0  0  0  0
 23 43  1  0  0  0  0
 23 44  1  0  0  0  0
 25 45  1  0  0  0  0
 25 46  1  0  0  0  0
 25 47  1  0  0  0  0
 27 48  1  0  0  0  0
 28 49  1  0  0  0  0
 29 50  1  0  0  0  0
 30 51  1  0  0  0  0
M  END
> <Compound_name>
4

> <Standard Type>
IC50

> <Standard Relation>
'='

> <Standard Value>
4.158818856113355E13

> <Standard Units>
nM

> <Outcome>
Inactive

> <InChIKey>
NNVVKOVHRSDRSQ-UHFFFAOYSA-N

> <Molecule ChEMBL ID>
CHEMBL378674

$$$$

  Mrv1817 04132013512D          

 36 38  0  0  0  0            999 V2000
    3.0638    0.2980    0.0000 C   0  0  0  0  0  0  0  0  0  0  0  0
    3.7312   -0.1869    0.0000 S   0  0  0  0  0  0  0  0  0  0  0  0
    3.4763   -0.9715    0.0000 C   0  0  0  0  0  0  0  0  0  0  0  0
    2.6513   -0.9715    0.0000 C   0  0  0  0  0  0  0  0  0  0  0  0
    2.3963   -0.1869    0.0000 C   0  0  0  0  0  0  0  0  0  0  0  0
    3.9612   -1.6390    0.0000 C   0  0  0  0  0  0  0  0  0  0  0  0
    4.7862   -1.6390    0.0000 C   0  0  0  0  0  0  0  0  0  0  0  0
    5.2711   -0.9715    0.0000 C   0  0  0  0  0  0  0  0  0  0  0  0
    5.7560   -0.3041    0.0000 N   0  0  0  0  0  0  0  0  0  0  0  0
    5.0411   -2.4236    0.0000 C   0  0  0  0  0  0  0  0  0  0  0  0
    5.8257   -2.6785    0.0000 S   0  0  0  0  0  0  0  0  0  0  0  0
    5.9973   -3.4855    0.0000 C   0  0  0  0  0  0  0  0  0  0  0  0
    4.3737   -2.9085    0.0000 N   0  0  0  0  0  0  0  0  0  0  0  0
    3.7062   -2.4236    0.0000 N   0  0  0  0  0  0  0  0  0  0  0  0
    2.9216   -2.6785    0.0000 C   0  0  0  0  0  0  0  0  0  0  0  0
    2.6667   -3.4631    0.0000 C   0  0  0  0  0  0  0  0  0  0  0  0
    1.8417   -3.4631    0.0000 C   0  0  0  0  0  0  0  0  0  0  0  0
    1.5867   -2.6785    0.0000 N   0  0  0  0  0  0  0  0  0  0  0  0
    2.2542   -2.1936    0.0000 N   0  0  0  0  0  0  0  0  0  0  0  0
    2.2542   -1.3686    0.0000 C   0  0  0  0  0  0  0  0  0  0  0  0
    1.3568   -4.1306    0.0000 C   0  0  0  0  0  0  0  0  0  0  0  0
    3.1516   -4.1306    0.0000 N   0  0  0  0  0  0  0  0  0  0  0  0
    2.8160   -4.8843    0.0000 O   0  0  0  0  0  0  0  0  0  0  0  0
    3.9721   -4.0444    0.0000 O   0  0  0  0  0  0  0  0  0  0  0  0
    3.0638    1.1230    0.0000 H   0  0  0  0  0  0  0  0  0  0  0  0
    2.9670   -1.7337    0.0000 H   0  0  0  0  0  0  0  0  0  0  0  0
    1.6117    0.0680    0.0000 H   0  0  0  0  0  0  0  0  0  0  0  0
    5.1903   -3.6570    0.0000 H   0  0  0  0  0  0  0  0  0  0  0  0
    6.1688   -4.2925    0.0000 H   0  0  0  0  0  0  0  0  0  0  0  0
    6.8042   -3.3140    0.0000 H   0  0  0  0  0  0  0  0  0  0  0  0
    2.0932   -0.5595    0.0000 H   0  0  0  0  0  0  0  0  0  0  0  0
    1.4920   -1.0529    0.0000 H   0  0  0  0  0  0  0  0  0  0  0  0
    1.5682   -1.8270    0.0000 H   0  0  0  0  0  0  0  0  0  0  0  0
    0.6893   -3.6457    0.0000 H   0  0  0  0  0  0  0  0  0  0  0  0
    0.8718   -4.7980    0.0000 H   0  0  0  0  0  0  0  0  0  0  0  0
    2.0242   -4.6155    0.0000 H   0  0  0  0  0  0  0  0  0  0  0  0
  1  2  4  0  0  0  0
  2  3  4  0  0  0  0
  3  4  4  0  0  0  0
  4  5  4  0  0  0  0
  1  5  4  0  0  0  0
  3  6  1  0  0  0  0
  6  7  4  0  0  0  0
  7  8  1  0  0  0  0
  8  9  3  0  0  0  0
  7 10  4  0  0  0  0
 10 11  1  0  0  0  0
 11 12  1  0  0  0  0
 10 13  4  0  0  0  0
 13 14  4  0  0  0  0
  6 14  4  0  0  0  0
 14 15  1  0  0  0  0
 15 16  4  0  0  0  0
 16 17  4  0  0  0  0
 17 18  4  0  0  0  0
 18 19  4  0  0  0  0
 15 19  4  0  0  0  0
 19 20  1  0  0  0  0
 17 21  1  0  0  0  0
 16 22  1  0  0  0  0
 22 23  2  0  0  0  0
 22 24  2  0  0  0  0
  1 25  1  0  0  0  0
  4 26  1  0  0  0  0
  5 27  1  0  0  0  0
 12 28  1  0  0  0  0
 12 29  1  0  0  0  0
 12 30  1  0  0  0  0
 20 31  1  0  0  0  0
 20 32  1  0  0  0  0
 20 33  1  0  0  0  0
 21 34  1  0  0  0  0
 21 35  1  0  0  0  0
 21 36  1  0  0  0  0
M  END
> <Compound_name>
20

> <Standard Type>
IC50

> <Standard Relation>
'='

> <Standard Value>
18000.0

> <Standard Units>
nM

> <Outcome>
Inactive

> <InChIKey>
NTMNWUJSOXLLCJ-UHFFFAOYSA-N

> <Molecule ChEMBL ID>
CHEMBL212399

$$$$

  Mrv1817 04132013512D          

 39 42  0  0  0  0            999 V2000
   -2.0617   -5.5830    0.0000 N   0  0  0  0  0  0  0  0  0  0  0  0
   -2.3166   -4.7984    0.0000 C   0  0  0  0  0  0  0  0  0  0  0  0
   -3.1236   -4.6269    0.0000 O   0  0  0  0  0  0  0  0  0  0  0  0
   -1.7646   -4.1853    0.0000 C   0  0  0  0  0  0  0  0  0  0  0  0
   -2.0195   -3.4007    0.0000 C   0  0  0  0  0  0  0  0  0  0  0  0
   -1.4675   -2.7876    0.0000 C   0  0  0  0  0  0  0  0  0  0  0  0
   -0.6605   -2.9591    0.0000 C   0  0  0  0  0  0  0  0  0  0  0  0
    0.0069   -2.4742    0.0000 N   0  0  0  0  0  0  0  0  0  0  0  0
    0.6744   -2.9591    0.0000 C   0  0  0  0  0  0  0  0  0  0  0  0
    1.4590   -2.7042    0.0000 O   0  0  0  0  0  0  0  0  0  0  0  0
    0.4194   -3.7437    0.0000 C   0  0  0  0  0  0  0  0  0  0  0  0
    0.9044   -4.4112    0.0000 O   0  0  0  0  0  0  0  0  0  0  0  0
   -0.4056   -3.7437    0.0000 C   0  0  0  0  0  0  0  0  0  0  0  0
   -0.9576   -4.3568    0.0000 C   0  0  0  0  0  0  0  0  0  0  0  0
    0.0069   -1.6492    0.0000 C   0  0  0  0  0  0  0  0  0  0  0  0
    0.7214   -1.2367    0.0000 C   0  0  0  0  0  0  0  0  0  0  0  0
    0.7214   -0.4117    0.0000 C   0  0  0  0  0  0  0  0  0  0  0  0
    1.4359    0.0008    0.0000 C   0  0  0  0  0  0  0  0  0  0  0  0
    2.1503   -0.4117    0.0000 C   0  0  0  0  0  0  0  0  0  0  0  0
    2.8648    0.0008    0.0000 C   0  0  0  0  0  0  0  0  0  0  0  0
    3.5793   -0.4117    0.0000 C   0  0  0  0  0  0  0  0  0  0  0  0
    3.5793   -1.2367    0.0000 C   0  0  0  0  0  0  0  0  0  0  0  0
    2.8648   -1.6492    0.0000 C   0  0  0  0  0  0  0  0  0  0  0  0
    2.1503   -1.2367    0.0000 C   0  0  0  0  0  0  0  0  0  0  0  0
    1.4359   -1.6492    0.0000 C   0  0  0  0  0  0  0  0  0  0  0  0
   -2.6137   -6.1961    0.0000 H   0  0  0  0  0  0  0  0  0  0  0  0
   -1.2547   -5.7545    0.0000 H   0  0  0  0  0  0  0  0  0  0  0  0
   -2.8265   -3.2291    0.0000 H   0  0  0  0  0  0  0  0  0  0  0  0
   -1.7224   -2.0030    0.0000 H   0  0  0  0  0  0  0  0  0  0  0  0
   -0.7027   -5.1414    0.0000 H   0  0  0  0  0  0  0  0  0  0  0  0
   -0.4464   -0.9599    0.0000 H   0  0  0  0  0  0  0  0  0  0  0  0
   -0.8167   -1.6012    0.0000 H   0  0  0  0  0  0  0  0  0  0  0  0
    0.0069    0.0008    0.0000 H   0  0  0  0  0  0  0  0  0  0  0  0
    1.4359    0.8258    0.0000 H   0  0  0  0  0  0  0  0  0  0  0  0
    2.8648    0.8258    0.0000 H   0  0  0  0  0  0  0  0  0  0  0  0
    4.2938    0.0008    0.0000 H   0  0  0  0  0  0  0  0  0  0  0  0
    4.2938   -1.6492    0.0000 H   0  0  0  0  0  0  0  0  0  0  0  0
    2.8648   -2.4742    0.0000 H   0  0  0  0  0  0  0  0  0  0  0  0
    1.4359   -2.4742    0.0000 H   0  0  0  0  0  0  0  0  0  0  0  0
  1  2  1  0  0  0  0
  2  3  2  0  0  0  0
  2  4  1  0  0  0  0
  4  5  4  0  0  0  0
  5  6  4  0  0  0  0
  6  7  4  0  0  0  0
  7  8  1  0  0  0  0
  8  9  1  0  0  0  0
  9 10  2  0  0  0  0
  9 11  1  0  0  0  0
 11 12  2  0  0  0  0
 11 13  1  0  0  0  0
  7 13  4  0  0  0  0
 13 14  4  0  0  0  0
  4 14  4  0  0  0  0
  8 15  1  0  0  0  0
 15 16  1  0  0  0  0
 16 17  4  0  0  0  0
 17 18  4  0  0  0  0
 18 19  4  0  0  0  0
 19 20  4  0  0  0  0
 20 21  4  0  0  0  0
 21 22  4  0  0  0  0
 22 23  4  0  0  0  0
 23 24  4  0  0  0  0
 19 24  4  0  0  0  0
 24 25  4  0  0  0  0
 16 25  4  0  0  0  0
  1 26  1  0  0  0  0
  1 27  1  0  0  0  0
  5 28  1  0  0  0  0
  6 29  1  0  0  0  0
 14 30  1  0  0  0  0
 15 31  1  0  0  0  0
 15 32  1  0  0  0  0
 17 33  1  0  0  0  0
 18 34  1  0  0  0  0
 20 35  1  0  0  0  0
 21 36  1  0  0  0  0
 22 37  1  0  0  0  0
 23 38  1  0  0  0  0
 25 39  1  0  0  0  0
M  END
> <Compound_name>
5f

> <Standard Type>
Ki

> <Standard Relation>
'='

> <Standard Value>
203.41

> <Standard Units>
nM

> <Outcome>
Active

> <InChIKey>
NTNYHMJYSGPGCQ-UHFFFAOYSA-N

> <Molecule ChEMBL ID>
CHEMBL358279

$$$$

  Mrv1817 04132013512D          

 37 39  0  0  0  0            999 V2000
   -0.3676    0.7352    0.0000 N   0  0  0  0  0  0  0  0  0  0  0  0
   -0.1127   -0.0494    0.0000 C   0  0  0  0  0  0  0  0  0  0  0  0
   -0.5976   -0.7168    0.0000 S   0  0  0  0  0  0  0  0  0  0  0  0
   -0.1127   -1.3843    0.0000 C   0  0  0  0  0  0  0  0  0  0  0  0
   -0.3676   -2.1689    0.0000 C   0  0  0  0  0  0  0  0  0  0  0  0
   -0.6225   -2.9535    0.0000 N   0  0  0  0  0  0  0  0  0  0  0  0
    0.6720   -1.1293    0.0000 C   0  0  0  0  0  0  0  0  0  0  0  0
    0.6720   -0.3043    0.0000 C   0  0  0  0  0  0  0  0  0  0  0  0
    1.3864    0.1082    0.0000 C   0  0  0  0  0  0  0  0  0  0  0  0
    1.3864    0.9332    0.0000 O   0  0  0  0  0  0  0  0  0  0  0  0
    2.1009   -0.3043    0.0000 C   0  0  0  0  0  0  0  0  0  0  0  0
    2.1009   -1.1293    0.0000 C   0  0  0  0  0  0  0  0  0  0  0  0
    2.9134   -0.9861    0.0000 C   0  0  0  0  0  0  0  0  0  0  0  0
    2.3831   -1.9046    0.0000 C   0  0  0  0  0  0  0  0  0  0  0  0
    1.3864   -1.5418    0.0000 C   0  0  0  0  0  0  0  0  0  0  0  0
   -1.1746    0.9068    0.0000 C   0  0  0  0  0  0  0  0  0  0  0  0
   -1.4295    1.6914    0.0000 C   0  0  0  0  0  0  0  0  0  0  0  0
   -2.2141    1.9463    0.0000 O   0  0  0  0  0  0  0  0  0  0  0  0
   -2.2141    2.7713    0.0000 C   0  0  0  0  0  0  0  0  0  0  0  0
   -1.4295    3.0263    0.0000 C   0  0  0  0  0  0  0  0  0  0  0  0
   -0.9446    2.3588    0.0000 C   0  0  0  0  0  0  0  0  0  0  0  0
    0.1844    1.3483    0.0000 H   0  0  0  0  0  0  0  0  0  0  0  0
    2.9245   -0.2563    0.0000 H   0  0  0  0  0  0  0  0  0  0  0  0
    2.5543    0.3850    0.0000 H   0  0  0  0  0  0  0  0  0  0  0  0
    2.6968   -1.7821    0.0000 H   0  0  0  0  0  0  0  0  0  0  0  0
    3.5413   -1.5212    0.0000 H   0  0  0  0  0  0  0  0  0  0  0  0
    3.6650   -0.6460    0.0000 H   0  0  0  0  0  0  0  0  0  0  0  0
    1.5587   -1.8733    0.0000 H   0  0  0  0  0  0  0  0  0  0  0  0
    2.0430   -2.6562    0.0000 H   0  0  0  0  0  0  0  0  0  0  0  0
    2.9509   -2.5031    0.0000 H   0  0  0  0  0  0  0  0  0  0  0  0
    0.7903   -2.1121    0.0000 H   0  0  0  0  0  0  0  0  0  0  0  0
    1.3864   -0.7168    0.0000 H   0  0  0  0  0  0  0  0  0  0  0  0
   -1.9430    0.6066    0.0000 H   0  0  0  0  0  0  0  0  0  0  0  0
   -1.3927    0.1111    0.0000 H   0  0  0  0  0  0  0  0  0  0  0  0
   -2.8816    3.2563    0.0000 H   0  0  0  0  0  0  0  0  0  0  0  0
   -1.1746    3.8109    0.0000 H   0  0  0  0  0  0  0  0  0  0  0  0
   -0.1196    2.3588    0.0000 H   0  0  0  0  0  0  0  0  0  0  0  0
  1  2  1  0  0  0  0
  2  3  4  0  0  0  0
  3  4  4  0  0  0  0
  4  5  1  0  0  0  0
  5  6  3  0  0  0  0
  4  7  4  0  0  0  0
  7  8  4  0  0  0  0
  2  8  4  0  0  0  0
  8  9  1  0  0  0  0
  9 10  2  0  0  0  0
  9 11  1  0  0  0  0
 11 12  1  0  0  0  0
 12 13  1  0  0  0  0
 12 14  1  0  0  0  0
 12 15  1  0  0  0  0
  7 15  1  0  0  0  0
  1 16  1  0  0  0  0
 16 17  1  0  0  0  0
 17 18  4  0  0  0  0
 18 19  4  0  0  0  0
 19 20  4  0  0  0  0
 20 21  4  0  0  0  0
 17 21  4  0  0  0  0
  1 22  1  0  0  0  0
 11 23  1  0  0  0  0
 11 24  1  0  0  0  0
 13 25  1  0  0  0  0
 13 26  1  0  0  0  0
 13 27  1  0  0  0  0
 14 28  1  0  0  0  0
 14 29  1  0  0  0  0
 14 30  1  0  0  0  0
 15 31  1  0  0  0  0
 15 32  1  0  0  0  0
 16 33  1  0  0  0  0
 16 34  1  0  0  0  0
 19 35  1  0  0  0  0
 20 36  1  0  0  0  0
 21 37  1  0  0  0  0
M  END
> <Compound_name>
19

> <Standard Type>
IC50

> <Standard Relation>
'='

> <Standard Value>
16000.0

> <Standard Units>
nM

> <Outcome>
Inactive

> <InChIKey>
OELFRKXRVLKMSJ-UHFFFAOYSA-N

> <Molecule ChEMBL ID>
CHEMBL212019

$$$$

  Mrv1817 04132013512D          

 58 60  0  0  0  0            999 V2000
    0.7146   -2.0304    0.0000 N   0  0  0  0  0  0  0  0  0  0  0  0
    1.4291   -1.6179    0.0000 C   0  0  0  0  0  0  0  0  0  0  0  0
    1.4291   -0.7929    0.0000 O   0  0  0  0  0  0  0  0  0  0  0  0
    2.1435   -2.0304    0.0000 C   0  0  0  0  0  0  0  0  0  0  0  0
    2.8580   -1.6179    0.0000 S   0  0  0  0  0  0  0  0  0  0  0  0
    3.5725   -2.0304    0.0000 C   0  0  0  0  0  0  0  0  0  0  0  0
    4.2870   -1.6179    0.0000 N   0  0  0  0  0  0  0  0  0  0  0  0
    5.0014   -2.0304    0.0000 C   0  0  0  0  0  0  0  0  0  0  0  0
    5.7159   -1.6179    0.0000 O   0  0  0  0  0  0  0  0  0  0  0  0
    5.0014   -2.8554    0.0000 C   0  0  0  0  0  0  0  0  0  0  0  0
    5.7159   -3.2679    0.0000 C   0  0  0  0  0  0  0  0  0  0  0  0
    6.4304   -3.6804    0.0000 N   0  0  0  0  0  0  0  0  0  0  0  0
    4.2870   -3.2679    0.0000 C   0  0  0  0  0  0  0  0  0  0  0  0
    3.5725   -2.8554    0.0000 N   0  0  0  0  0  0  0  0  0  0  0  0
    4.2870   -4.0929    0.0000 C   0  0  0  0  0  0  0  0  0  0  0  0
    5.0014   -4.5054    0.0000 C   0  0  0  0  0  0  0  0  0  0  0  0
    5.0014   -5.3304    0.0000 C   0  0  0  0  0  0  0  0  0  0  0  0
    4.2870   -5.7429    0.0000 C   0  0  0  0  0  0  0  0  0  0  0  0
    3.5725   -5.3304    0.0000 C   0  0  0  0  0  0  0  0  0  0  0  0
    3.5725   -4.5054    0.0000 C   0  0  0  0  0  0  0  0  0  0  0  0
    0.0001   -1.6179    0.0000 C   0  0  0  0  0  0  0  0  0  0  0  0
   -0.7143   -2.0304    0.0000 C   0  0  0  0  0  0  0  0  0  0  0  0
   -1.4288   -1.6179    0.0000 C   0  0  0  0  0  0  0  0  0  0  0  0
   -1.4288   -0.7929    0.0000 C   0  0  0  0  0  0  0  0  0  0  0  0
   -0.7143   -0.3804    0.0000 C   0  0  0  0  0  0  0  0  0  0  0  0
    0.0001   -0.7929    0.0000 C   0  0  0  0  0  0  0  0  0  0  0  0
   -2.1433   -0.3804    0.0000 C   0  0  0  0  0  0  0  0  0  0  0  0
   -2.8578    0.0321    0.0000 C   0  0  0  0  0  0  0  0  0  0  0  0
   -1.7308    0.3341    0.0000 C   0  0  0  0  0  0  0  0  0  0  0  0
   -2.5558   -1.0948    0.0000 C   0  0  0  0  0  0  0  0  0  0  0  0
    0.7146   -2.8554    0.0000 H   0  0  0  0  0  0  0  0  0  0  0  0
    1.7733   -2.7676    0.0000 H   0  0  0  0  0  0  0  0  0  0  0  0
    2.5138   -2.7676    0.0000 H   0  0  0  0  0  0  0  0  0  0  0  0
    2.8580   -3.2679    0.0000 H   0  0  0  0  0  0  0  0  0  0  0  0
    3.5725   -3.6804    0.0000 H   0  0  0  0  0  0  0  0  0  0  0  0
    5.8250   -4.4574    0.0000 H   0  0  0  0  0  0  0  0  0  0  0  0
    5.4548   -3.8161    0.0000 H   0  0  0  0  0  0  0  0  0  0  0  0
    5.4548   -6.0196    0.0000 H   0  0  0  0  0  0  0  0  0  0  0  0
    5.8250   -5.3783    0.0000 H   0  0  0  0  0  0  0  0  0  0  0  0
    3.9167   -6.4801    0.0000 H   0  0  0  0  0  0  0  0  0  0  0  0
    4.6572   -6.4801    0.0000 H   0  0  0  0  0  0  0  0  0  0  0  0
    2.7489   -5.3783    0.0000 H   0  0  0  0  0  0  0  0  0  0  0  0
    3.1191   -6.0196    0.0000 H   0  0  0  0  0  0  0  0  0  0  0  0
    2.7972   -4.2232    0.0000 H   0  0  0  0  0  0  0  0  0  0  0  0
    2.7972   -4.7875    0.0000 H   0  0  0  0  0  0  0  0  0  0  0  0
   -0.7143   -2.8554    0.0000 H   0  0  0  0  0  0  0  0  0  0  0  0
   -2.1433   -2.0304    0.0000 H   0  0  0  0  0  0  0  0  0  0  0  0
   -0.7143    0.4446    0.0000 H   0  0  0  0  0  0  0  0  0  0  0  0
    0.7146   -0.3804    0.0000 H   0  0  0  0  0  0  0  0  0  0  0  0
   -2.4453    0.7466    0.0000 H   0  0  0  0  0  0  0  0  0  0  0  0
   -3.5722    0.4446    0.0000 H   0  0  0  0  0  0  0  0  0  0  0  0
   -3.2703   -0.6823    0.0000 H   0  0  0  0  0  0  0  0  0  0  0  0
   -1.2286   -0.3204    0.0000 H   0  0  0  0  0  0  0  0  0  0  0  0
   -0.9339    0.5476    0.0000 H   0  0  0  0  0  0  0  0  0  0  0  0
   -1.6231    1.1521    0.0000 H   0  0  0  0  0  0  0  0  0  0  0  0
   -3.2103   -1.5971    0.0000 H   0  0  0  0  0  0  0  0  0  0  0  0
   -2.3423   -1.8917    0.0000 H   0  0  0  0  0  0  0  0  0  0  0  0
   -1.7378   -1.2025    0.0000 H   0  0  0  0  0  0  0  0  0  0  0  0
  1  2  1  0  0  0  0
  2  3  2  0  0  0  0
  2  4  1  0  0  0  0
  4  5  1  0  0  0  0
  5  6  1  0  0  0  0
  6  7  2  0  0  0  0
  7  8  1  0  0  0  0
  8  9  2  0  0  0  0
  8 10  1  0  0  0  0
 10 11  1  0  0  0  0
 11 12  3  0  0  0  0
 10 13  2  0  0  0  0
 13 14  1  0  0  0  0
  6 14  1  0  0  0  0
 13 15  1  0  0  0  0
 15 16  1  0  0  0  0
 16 17  1  0  0  0  0
 17 18  1  0  0  0  0
 18 19  1  0  0  0  0
 19 20  1  0  0  0  0
 15 20  1  0  0  0  0
  1 21  1  0  0  0  0
 21 22  4  0  0  0  0
 22 23  4  0  0  0  0
 23 24  4  0  0  0  0
 24 25  4  0  0  0  0
 25 26  4  0  0  0  0
 21 26  4  0  0  0  0
 24 27  1  0  0  0  0
 27 28  1  0  0  0  0
 27 29  1  0  0  0  0
 27 30  1  0  0  0  0
  1 31  1  0  0  0  0
  4 32  1  0  0  0  0
  4 33  1  0  0  0  0
 14 34  1  0  0  0  0
 15 35  1  0  0  0  0
 16 36  1  0  0  0  0
 16 37  1  0  0  0  0
 17 38  1  0  0  0  0
 17 39  1  0  0  0  0
 18 40  1  0  0  0  0
 18 41  1  0  0  0  0
 19 42  1  0  0  0  0
 19 43  1  0  0  0  0
 20 44  1  0  0  0  0
 20 45  1  0  0  0  0
 22 46  1  0  0  0  0
 23 47  1  0  0  0  0
 25 48  1  0  0  0  0
 26 49  1  0  0  0  0
 28 50  1  0  0  0  0
 28 51  1  0  0  0  0
 28 52  1  0  0  0  0
 29 53  1  0  0  0  0
 29 54  1  0  0  0  0
 29 55  1  0  0  0  0
 30 56  1  0  0  0  0
 30 57  1  0  0  0  0
 30 58  1  0  0  0  0
M  END
> <Compound_name>
25

> <Standard Type>
IC50

> <Standard Relation>
'='

> <Standard Value>
1.409191640632225E12

> <Standard Units>
nM

> <Outcome>
Inactive

> <InChIKey>
OLHLKONSFGSLGT-UHFFFAOYSA-N

> <Molecule ChEMBL ID>
CHEMBL378677

$$$$

  Mrv1817 04132013512D          

 28 29  0  0  0  0            999 V2000
    0.7145   -1.2375    0.0000 O   0  0  0  0  0  0  0  0  0  0  0  0
    0.7145   -2.0625    0.0000 N   0  3  0  0  0  0  0  0  0  0  0  0
    1.4289   -2.4750    0.0000 C   0  0  0  0  0  0  0  0  0  0  0  0
    1.4289   -3.3000    0.0000 C   0  0  0  0  0  0  0  0  0  0  0  0
    0.7145   -3.7125    0.0000 C   0  0  0  0  0  0  0  0  0  0  0  0
    0.0000   -3.3000    0.0000 C   0  0  0  0  0  0  0  0  0  0  0  0
    0.0000   -2.4750    0.0000 C   0  0  0  0  0  0  0  0  0  0  0  0
   -0.7145   -2.0625    0.0000 S   0  0  0  0  0  0  0  0  0  0  0  0
   -1.1270   -2.7770    0.0000 O   0  0  0  0  0  0  0  0  0  0  0  0
   -0.3020   -1.3480    0.0000 O   0  0  0  0  0  0  0  0  0  0  0  0
   -1.4289   -1.6500    0.0000 C   0  0  0  0  0  0  0  0  0  0  0  0
   -2.1434   -2.0625    0.0000 C   0  0  0  0  0  0  0  0  0  0  0  0
   -2.8579   -1.6500    0.0000 C   0  0  0  0  0  0  0  0  0  0  0  0
   -2.8579   -0.8250    0.0000 C   0  0  0  0  0  0  0  0  0  0  0  0
   -3.5724   -0.4125    0.0000 Cl  0  0  0  0  0  0  0  0  0  0  0  0
   -2.1434   -0.4125    0.0000 C   0  0  0  0  0  0  0  0  0  0  0  0
   -1.4289   -0.8250    0.0000 C   0  0  0  0  0  0  0  0  0  0  0  0
    2.1434   -3.7125    0.0000 N   0  0  0  0  0  0  0  0  0  0  0  0
    2.8579   -3.3000    0.0000 O   0  0  0  0  0  0  0  0  0  0  0  0
    2.1434   -4.5375    0.0000 O   0  0  0  0  0  0  0  0  0  0  0  0
    1.4289   -0.8250    0.0000 H   0  0  0  0  0  0  0  0  0  0  0  0
    2.1434   -2.0625    0.0000 H   0  0  0  0  0  0  0  0  0  0  0  0
    0.7145   -4.5375    0.0000 H   0  0  0  0  0  0  0  0  0  0  0  0
   -0.7145   -3.7125    0.0000 H   0  0  0  0  0  0  0  0  0  0  0  0
   -2.1434   -2.8875    0.0000 H   0  0  0  0  0  0  0  0  0  0  0  0
   -3.5724   -2.0625    0.0000 H   0  0  0  0  0  0  0  0  0  0  0  0
   -2.1434    0.4125    0.0000 H   0  0  0  0  0  0  0  0  0  0  0  0
   -0.7145   -0.4125    0.0000 H   0  0  0  0  0  0  0  0  0  0  0  0
  1  2  1  0  0  0  0
  2  3  4  0  0  0  0
  3  4  4  0  0  0  0
  4  5  4  0  0  0  0
  5  6  4  0  0  0  0
  6  7  4  0  0  0  0
  2  7  4  0  0  0  0
  7  8  1  0  0  0  0
  8  9  2  0  0  0  0
  8 10  2  0  0  0  0
  8 11  1  0  0  0  0
 11 12  4  0  0  0  0
 12 13  4  0  0  0  0
 13 14  4  0  0  0  0
 14 15  1  0  0  0  0
 14 16  4  0  0  0  0
 16 17  4  0  0  0  0
 11 17  4  0  0  0  0
  4 18  1  0  0  0  0
 18 19  2  0  0  0  0
 18 20  2  0  0  0  0
  1 21  1  0  0  0  0
  3 22  1  0  0  0  0
  5 23  1  0  0  0  0
  6 24  1  0  0  0  0
 12 25  1  0  0  0  0
 13 26  1  0  0  0  0
 16 27  1  0  0  0  0
 17 28  1  0  0  0  0
M  CHG  1   2   1
M  END
> <Compound_name>
9

> <Standard Type>
IC50

> <Standard Relation>
'='

> <Standard Value>
15000.0

> <Standard Units>
nM

> <Outcome>
Inactive

> <InChIKey>
PFFATFLVZFUMFM-UHFFFAOYSA-N

> <Molecule ChEMBL ID>
CHEMBL384739

$$$$

  Mrv1817 04132013512D          

 95 96  0  0  0  0            999 V2000
    2.8381   -1.3720    0.0000 N   0  0  0  0  0  0  0  0  0  0  0  0
    2.2144   -1.9121    0.0000 C   0  0  0  0  0  0  0  0  0  0  0  0
    2.3703   -2.7222    0.0000 O   0  0  0  0  0  0  0  0  0  0  0  0
    1.4349   -1.6420    0.0000 O   0  0  0  0  0  0  0  0  0  0  0  0
    0.8112   -2.1821    0.0000 C   0  0  0  0  0  0  0  0  0  0  0  0
    0.0317   -1.9121    0.0000 C   0  0  0  0  0  0  0  0  0  0  0  0
   -0.5919   -2.4522    0.0000 C   0  0  0  0  0  0  0  0  0  0  0  0
   -1.3715   -2.1821    0.0000 C   0  0  0  0  0  0  0  0  0  0  0  0
   -1.5274   -1.3720    0.0000 C   0  0  0  0  0  0  0  0  0  0  0  0
   -0.9038   -0.8319    0.0000 C   0  0  0  0  0  0  0  0  0  0  0  0
   -0.1242   -1.1020    0.0000 C   0  0  0  0  0  0  0  0  0  0  0  0
    3.6176   -1.6420    0.0000 C   0  0  0  0  0  0  0  0  0  0  0  0
    4.2413   -1.1020    0.0000 C   0  0  0  0  0  0  0  0  0  0  0  0
    4.0854   -0.2918    0.0000 O   0  0  0  0  0  0  0  0  0  0  0  0
    5.0208   -1.3720    0.0000 N   0  0  0  0  0  0  0  0  0  0  0  0
    5.6445   -0.8319    0.0000 C   0  0  0  0  0  0  0  0  0  0  0  0
    6.4240   -1.1020    0.0000 C   0  0  0  0  0  0  0  0  0  0  0  0
    6.5799   -1.9121    0.0000 O   0  0  0  0  0  0  0  0  0  0  0  0
    7.0477   -0.5619    0.0000 N   0  0  0  0  0  0  0  0  0  0  0  0
    7.8272   -0.8319    0.0000 C   0  0  0  0  0  0  0  0  0  0  0  0
    8.4509   -0.2918    0.0000 C   0  0  0  0  0  0  0  0  0  0  0  0
    9.2304   -0.5619    0.0000 C   0  0  0  0  0  0  0  0  0  0  0  0
    9.8540   -0.0218    0.0000 C   0  0  0  0  0  0  0  0  0  0  0  0
   10.6336   -0.2918    0.0000 O   0  0  0  0  0  0  0  0  0  0  0  0
    9.6981    0.7884    0.0000 O   0  0  0  0  0  0  0  0  0  0  0  0
   10.3218    1.3284    0.0000 C   0  0  0  0  0  0  0  0  0  0  0  0
   10.1659    2.1386    0.0000 C   0  0  0  0  0  0  0  0  0  0  0  0
    7.9831   -1.6420    0.0000 C   0  0  0  0  0  0  0  0  0  0  0  0
    8.7627   -1.9121    0.0000 C   0  0  0  0  0  0  0  0  0  0  0  0
    9.0024   -2.7015    0.0000 C   0  0  0  0  0  0  0  0  0  0  0  0
    8.5047   -3.3594    0.0000 O   0  0  0  0  0  0  0  0  0  0  0  0
    9.8273   -2.7174    0.0000 N   0  0  0  0  0  0  0  0  0  0  0  0
   10.0973   -1.9379    0.0000 C   0  0  0  0  0  0  0  0  0  0  0  0
    9.4394   -1.4401    0.0000 C   0  0  0  0  0  0  0  0  0  0  0  0
    5.4886   -0.0218    0.0000 C   0  0  0  0  0  0  0  0  0  0  0  0
    6.1122    0.5183    0.0000 C   0  0  0  0  0  0  0  0  0  0  0  0
    5.9563    1.3284    0.0000 C   0  0  0  0  0  0  0  0  0  0  0  0
    6.8917    0.2483    0.0000 C   0  0  0  0  0  0  0  0  0  0  0  0
    3.7735   -2.4522    0.0000 C   0  0  0  0  0  0  0  0  0  0  0  0
    3.1499   -2.9923    0.0000 O   0  0  0  0  0  0  0  0  0  0  0  0
    3.3058   -3.8024    0.0000 C   0  0  0  0  0  0  0  0  0  0  0  0
    2.4957   -3.9583    0.0000 C   0  0  0  0  0  0  0  0  0  0  0  0
    4.1159   -3.6465    0.0000 C   0  0  0  0  0  0  0  0  0  0  0  0
    3.4617   -4.6125    0.0000 C   0  0  0  0  0  0  0  0  0  0  0  0
    4.5531   -2.7222    0.0000 C   0  0  0  0  0  0  0  0  0  0  0  0
    2.6822   -0.5619    0.0000 H   0  0  0  0  0  0  0  0  0  0  0  0
    0.5870   -2.9761    0.0000 H   0  0  0  0  0  0  0  0  0  0  0  0
    1.3142   -2.8361    0.0000 H   0  0  0  0  0  0  0  0  0  0  0  0
   -0.4360   -3.2623    0.0000 H   0  0  0  0  0  0  0  0  0  0  0  0
   -1.9951   -2.7222    0.0000 H   0  0  0  0  0  0  0  0  0  0  0  0
   -2.3070   -1.1020    0.0000 H   0  0  0  0  0  0  0  0  0  0  0  0
   -1.0597   -0.0218    0.0000 H   0  0  0  0  0  0  0  0  0  0  0  0
    0.4994   -0.5619    0.0000 H   0  0  0  0  0  0  0  0  0  0  0  0
    3.4617   -0.8319    0.0000 H   0  0  0  0  0  0  0  0  0  0  0  0
    5.1767   -2.1821    0.0000 H   0  0  0  0  0  0  0  0  0  0  0  0
    5.8004   -1.6420    0.0000 H   0  0  0  0  0  0  0  0  0  0  0  0
    6.2681   -0.2918    0.0000 H   0  0  0  0  0  0  0  0  0  0  0  0
    7.6713   -0.0218    0.0000 H   0  0  0  0  0  0  0  0  0  0  0  0
    8.7209    0.4877    0.0000 H   0  0  0  0  0  0  0  0  0  0  0  0
   10.0156   -0.8149    0.0000 H   0  0  0  0  0  0  0  0  0  0  0  0
   10.8972    0.7373    0.0000 H   0  0  0  0  0  0  0  0  0  0  0  0
   11.1396    1.4370    0.0000 H   0  0  0  0  0  0  0  0  0  0  0  0
   10.9760    2.2945    0.0000 H   0  0  0  0  0  0  0  0  0  0  0  0
   10.0100    2.9487    0.0000 H   0  0  0  0  0  0  0  0  0  0  0  0
    9.3557    1.9827    0.0000 H   0  0  0  0  0  0  0  0  0  0  0  0
    7.1834   -1.8448    0.0000 H   0  0  0  0  0  0  0  0  0  0  0  0
    7.6682   -2.4046    0.0000 H   0  0  0  0  0  0  0  0  0  0  0  0
    8.6494   -1.0949    0.0000 H   0  0  0  0  0  0  0  0  0  0  0  0
   10.2992   -3.3941    0.0000 H   0  0  0  0  0  0  0  0  0  0  0  0
   10.9068   -2.0968    0.0000 H   0  0  0  0  0  0  0  0  0  0  0  0
   10.6817   -1.3556    0.0000 H   0  0  0  0  0  0  0  0  0  0  0  0
    9.4234   -2.2650    0.0000 H   0  0  0  0  0  0  0  0  0  0  0  0
   10.2611   -1.3666    0.0000 H   0  0  0  0  0  0  0  0  0  0  0  0
    4.9131    0.5694    0.0000 H   0  0  0  0  0  0  0  0  0  0  0  0
    4.6707   -0.1303    0.0000 H   0  0  0  0  0  0  0  0  0  0  0  0
    5.3326    0.7884    0.0000 H   0  0  0  0  0  0  0  0  0  0  0  0
    6.7792    1.2694    0.0000 H   0  0  0  0  0  0  0  0  0  0  0  0
    6.2263    2.1080    0.0000 H   0  0  0  0  0  0  0  0  0  0  0  0
    5.2732    1.7911    0.0000 H   0  0  0  0  0  0  0  0  0  0  0  0
    7.6339    0.6085    0.0000 H   0  0  0  0  0  0  0  0  0  0  0  0
    7.1618    1.0278    0.0000 H   0  0  0  0  0  0  0  0  0  0  0  0
    6.5315    0.9904    0.0000 H   0  0  0  0  0  0  0  0  0  0  0  0
    2.9940   -2.1821    0.0000 H   0  0  0  0  0  0  0  0  0  0  0  0
    2.3398   -3.1482    0.0000 H   0  0  0  0  0  0  0  0  0  0  0  0
    1.6855   -4.1142    0.0000 H   0  0  0  0  0  0  0  0  0  0  0  0
    2.6516   -4.7684    0.0000 H   0  0  0  0  0  0  0  0  0  0  0  0
    4.2719   -4.4566    0.0000 H   0  0  0  0  0  0  0  0  0  0  0  0
    4.9261   -3.4906    0.0000 H   0  0  0  0  0  0  0  0  0  0  0  0
    3.9600   -2.8364    0.0000 H   0  0  0  0  0  0  0  0  0  0  0  0
    2.9991   -5.2956    0.0000 H   0  0  0  0  0  0  0  0  0  0  0  0
    3.6176   -5.4227    0.0000 H   0  0  0  0  0  0  0  0  0  0  0  0
    4.1448   -5.0751    0.0000 H   0  0  0  0  0  0  0  0  0  0  0  0
    5.3612   -2.8882    0.0000 H   0  0  0  0  0  0  0  0  0  0  0  0
    4.3972   -1.9121    0.0000 H   0  0  0  0  0  0  0  0  0  0  0  0
    4.1836   -3.4599    0.0000 H   0  0  0  0  0  0  0  0  0  0  0  0
  1  2  1  0  0  0  0
  2  3  2  0  0  0  0
  2  4  1  0  0  0  0
  4  5  1  0  0  0  0
  5  6  1  0  0  0  0
  6  7  4  0  0  0  0
  7  8  4  0  0  0  0
  8  9  4  0  0  0  0
  9 10  4  0  0  0  0
 10 11  4  0  0  0  0
  6 11  4  0  0  0  0
  1 12  1  0  0  0  0
 12 13  1  0  0  0  0
 13 14  2  0  0  0  0
 13 15  1  0  0  0  0
 15 16  1  0  0  0  0
 16 17  1  0  0  0  0
 17 18  2  0  0  0  0
 17 19  1  0  0  0  0
 19 20  1  0  0  0  0
 21 20  1  4  0  0  0
 21 22  2  0  0  0  0
 22 23  1  0  0  0  0
 23 24  2  0  0  0  0
 23 25  1  0  0  0  0
 25 26  1  0  0  0  0
 26 27  1  0  0  0  0
 20 28  1  0  0  0  0
 28 29  1  0  0  0  0
 29 30  1  0  0  0  0
 30 31  2  0  0  0  0
 30 32  1  0  0  0  0
 32 33  1  0  0  0  0
 33 34  1  0  0  0  0
 29 34  1  0  0  0  0
 16 35  1  0  0  0  0
 35 36  1  0  0  0  0
 36 37  1  0  0  0  0
 36 38  1  0  0  0  0
 12 39  1  0  0  0  0
 39 40  1  0  0  0  0
 40 41  1  0  0  0  0
 41 42  1  0  0  0  0
 41 43  1  0  0  0  0
 41 44  1  0  0  0  0
 39 45  1  0  0  0  0
  1 46  1  0  0  0  0
  5 47  1  0  0  0  0
  5 48  1  0  0  0  0
  7 49  1  0  0  0  0
  8 50  1  0  0  0  0
  9 51  1  0  0  0  0
 10 52  1  0  0  0  0
 11 53  1  0  0  0  0
 12 54  1  0  0  0  0
 15 55  1  0  0  0  0
 16 56  1  0  0  0  0
 19 57  1  0  0  0  0
 20 58  1  0  0  0  0
 21 59  1  0  0  0  0
 22 60  1  0  0  0  0
 26 61  1  0  0  0  0
 26 62  1  0  0  0  0
 27 63  1  0  0  0  0
 27 64  1  0  0  0  0
 27 65  1  0  0  0  0
 28 66  1  0  0  0  0
 28 67  1  0  0  0  0
 29 68  1  0  0  0  0
 32 69  1  0  0  0  0
 33 70  1  0  0  0  0
 33 71  1  0  0  0  0
 34 72  1  0  0  0  0
 34 73  1  0  0  0  0
 35 74  1  0  0  0  0
 35 75  1  0  0  0  0
 36 76  1  0  0  0  0
 37 77  1  0  0  0  0
 37 78  1  0  0  0  0
 37 79  1  0  0  0  0
 38 80  1  0  0  0  0
 38 81  1  0  0  0  0
 38 82  1  0  0  0  0
 39 83  1  0  0  0  0
 42 84  1  0  0  0  0
 42 85  1  0  0  0  0
 42 86  1  0  0  0  0
 43 87  1  0  0  0  0
 43 88  1  0  0  0  0
 43 89  1  0  0  0  0
 44 90  1  0  0  0  0
 44 91  1  0  0  0  0
 44 92  1  0  0  0  0
 45 93  1  0  0  0  0
 45 94  1  0  0  0  0
 45 95  1  0  0  0  0
M  END
> <Compound_name>
4

> <Standard Type>
Ki

> <Standard Relation>
'='

> <Standard Value>
58.0

> <Standard Units>
nM

> <Outcome>
Active

> <InChIKey>
PWBQMVUCCVWDEJ-UHFFFAOYNA-N

> <Molecule ChEMBL ID>
CHEMBL212080

$$$$

  Mrv1817 04132013512D          

 29 30  0  0  0  0            999 V2000
   -0.0000   -0.8250    0.0000 O   0  0  0  0  0  0  0  0  0  0  0  0
    0.7145   -1.2375    0.0000 C   0  0  0  0  0  0  0  0  0  0  0  0
    1.4289   -0.8250    0.0000 O   0  0  0  0  0  0  0  0  0  0  0  0
    0.7145   -2.0625    0.0000 C   0  0  0  0  0  0  0  0  0  0  0  0
    1.4289   -2.4750    0.0000 C   0  0  0  0  0  0  0  0  0  0  0  0
    1.4289   -3.3000    0.0000 C   0  0  0  0  0  0  0  0  0  0  0  0
    0.7145   -3.7125    0.0000 C   0  0  0  0  0  0  0  0  0  0  0  0
   -0.0000   -3.3000    0.0000 C   0  0  0  0  0  0  0  0  0  0  0  0
   -0.0000   -2.4750    0.0000 C   0  0  0  0  0  0  0  0  0  0  0  0
    0.7145   -4.5375    0.0000 S   0  0  0  0  0  0  0  0  0  0  0  0
   -0.1105   -4.5375    0.0000 O   0  0  0  0  0  0  0  0  0  0  0  0
    1.5395   -4.5375    0.0000 O   0  0  0  0  0  0  0  0  0  0  0  0
    0.7145   -5.3625    0.0000 C   0  0  0  0  0  0  0  0  0  0  0  0
    1.4289   -5.7750    0.0000 C   0  0  0  0  0  0  0  0  0  0  0  0
    1.4289   -6.6000    0.0000 C   0  0  0  0  0  0  0  0  0  0  0  0
    2.1434   -7.0125    0.0000 Br  0  0  0  0  0  0  0  0  0  0  0  0
    0.7145   -7.0125    0.0000 C   0  0  0  0  0  0  0  0  0  0  0  0
    0.7145   -7.8375    0.0000 O   0  0  0  0  0  0  0  0  0  0  0  0
   -0.0000   -6.6000    0.0000 C   0  0  0  0  0  0  0  0  0  0  0  0
   -0.7145   -7.0125    0.0000 Br  0  0  0  0  0  0  0  0  0  0  0  0
   -0.0000   -5.7750    0.0000 C   0  0  0  0  0  0  0  0  0  0  0  0
   -0.0000   -0.0000    0.0000 H   0  0  0  0  0  0  0  0  0  0  0  0
    2.1434   -2.0625    0.0000 H   0  0  0  0  0  0  0  0  0  0  0  0
    2.1434   -3.7125    0.0000 H   0  0  0  0  0  0  0  0  0  0  0  0
   -0.7145   -3.7125    0.0000 H   0  0  0  0  0  0  0  0  0  0  0  0
   -0.7145   -2.0625    0.0000 H   0  0  0  0  0  0  0  0  0  0  0  0
    2.1434   -5.3625    0.0000 H   0  0  0  0  0  0  0  0  0  0  0  0
   -0.0000   -8.2500    0.0000 H   0  0  0  0  0  0  0  0  0  0  0  0
   -0.7145   -5.3625    0.0000 H   0  0  0  0  0  0  0  0  0  0  0  0
  1  2  1  0  0  0  0
  2  3  2  0  0  0  0
  2  4  1  0  0  0  0
  4  5  4  0  0  0  0
  5  6  4  0  0  0  0
  6  7  4  0  0  0  0
  7  8  4  0  0  0  0
  8  9  4  0  0  0  0
  4  9  4  0  0  0  0
  7 10  1  0  0  0  0
 10 11  2  0  0  0  0
 10 12  2  0  0  0  0
 10 13  1  0  0  0  0
 13 14  4  0  0  0  0
 14 15  4  0  0  0  0
 15 16  1  0  0  0  0
 15 17  4  0  0  0  0
 17 18  1  0  0  0  0
 17 19  4  0  0  0  0
 19 20  1  0  0  0  0
 19 21  4  0  0  0  0
 13 21  4  0  0  0  0
  1 22  1  0  0  0  0
  5 23  1  0  0  0  0
  6 24  1  0  0  0  0
  8 25  1  0  0  0  0
  9 26  1  0  0  0  0
 14 27  1  0  0  0  0
 18 28  1  0  0  0  0
 21 29  1  0  0  0  0
M  END
> <Compound_name>
11

> <Standard Type>
IC50

> <Standard Relation>
'='

> <Standard Value>
16000.0

> <Standard Units>
nM

> <Outcome>
Inactive

> <InChIKey>
PWOOQGJCRRKDBU-UHFFFAOYSA-N

> <Molecule ChEMBL ID>
CHEMBL212240

$$$$

  Mrv1817 04132013512D          

 49 51  0  0  0  0            999 V2000
    0.7145   -2.0621    0.0000 N   0  0  0  0  0  0  0  0  0  0  0  0
    1.4289   -1.6496    0.0000 C   0  0  0  0  0  0  0  0  0  0  0  0
    1.4289   -0.8246    0.0000 O   0  0  0  0  0  0  0  0  0  0  0  0
    2.1434   -2.0621    0.0000 C   0  0  0  0  0  0  0  0  0  0  0  0
    2.8579   -1.6496    0.0000 S   0  0  0  0  0  0  0  0  0  0  0  0
    3.5724   -2.0621    0.0000 C   0  0  0  0  0  0  0  0  0  0  0  0
    4.2868   -1.6496    0.0000 N   0  0  0  0  0  0  0  0  0  0  0  0
    5.0013   -2.0621    0.0000 C   0  0  0  0  0  0  0  0  0  0  0  0
    5.7158   -1.6496    0.0000 O   0  0  0  0  0  0  0  0  0  0  0  0
    5.0013   -2.8871    0.0000 C   0  0  0  0  0  0  0  0  0  0  0  0
    5.7158   -3.2996    0.0000 C   0  0  0  0  0  0  0  0  0  0  0  0
    6.4302   -3.7121    0.0000 N   0  0  0  0  0  0  0  0  0  0  0  0
    4.2868   -3.2996    0.0000 C   0  0  0  0  0  0  0  0  0  0  0  0
    3.5724   -2.8871    0.0000 N   0  0  0  0  0  0  0  0  0  0  0  0
    4.2868   -4.1246    0.0000 C   0  0  0  0  0  0  0  0  0  0  0  0
    5.0013   -4.5371    0.0000 C   0  0  0  0  0  0  0  0  0  0  0  0
    5.0013   -5.3621    0.0000 C   0  0  0  0  0  0  0  0  0  0  0  0
    4.2868   -5.7746    0.0000 C   0  0  0  0  0  0  0  0  0  0  0  0
    3.5724   -5.3621    0.0000 C   0  0  0  0  0  0  0  0  0  0  0  0
    2.8579   -5.7746    0.0000 O   0  0  0  0  0  0  0  0  0  0  0  0
    2.8579   -6.5996    0.0000 C   0  0  0  0  0  0  0  0  0  0  0  0
    3.5724   -4.5371    0.0000 C   0  0  0  0  0  0  0  0  0  0  0  0
    0.0000   -1.6496    0.0000 C   0  0  0  0  0  0  0  0  0  0  0  0
   -0.7145   -2.0621    0.0000 C   0  0  0  0  0  0  0  0  0  0  0  0
   -1.4289   -1.6496    0.0000 C   0  0  0  0  0  0  0  0  0  0  0  0
   -1.4289   -0.8246    0.0000 C   0  0  0  0  0  0  0  0  0  0  0  0
   -0.7145   -0.4121    0.0000 C   0  0  0  0  0  0  0  0  0  0  0  0
    0.0000   -0.8246    0.0000 C   0  0  0  0  0  0  0  0  0  0  0  0
   -2.1434   -0.4121    0.0000 C   0  0  0  0  0  0  0  0  0  0  0  0
   -2.8579   -0.8246    0.0000 O   0  0  0  0  0  0  0  0  0  0  0  0
   -2.1434    0.4129    0.0000 C   0  0  0  0  0  0  0  0  0  0  0  0
    0.7145   -2.8871    0.0000 H   0  0  0  0  0  0  0  0  0  0  0  0
    1.7732   -2.7994    0.0000 H   0  0  0  0  0  0  0  0  0  0  0  0
    2.5137   -2.7994    0.0000 H   0  0  0  0  0  0  0  0  0  0  0  0
    2.8579   -3.2996    0.0000 H   0  0  0  0  0  0  0  0  0  0  0  0
    5.7158   -4.1246    0.0000 H   0  0  0  0  0  0  0  0  0  0  0  0
    5.7158   -5.7746    0.0000 H   0  0  0  0  0  0  0  0  0  0  0  0
    4.2868   -6.5996    0.0000 H   0  0  0  0  0  0  0  0  0  0  0  0
    2.0329   -6.5996    0.0000 H   0  0  0  0  0  0  0  0  0  0  0  0
    2.8579   -7.4246    0.0000 H   0  0  0  0  0  0  0  0  0  0  0  0
    3.6829   -6.5996    0.0000 H   0  0  0  0  0  0  0  0  0  0  0  0
    2.8579   -4.1246    0.0000 H   0  0  0  0  0  0  0  0  0  0  0  0
   -0.7145   -2.8871    0.0000 H   0  0  0  0  0  0  0  0  0  0  0  0
   -2.1434   -2.0621    0.0000 H   0  0  0  0  0  0  0  0  0  0  0  0
   -0.7145    0.4129    0.0000 H   0  0  0  0  0  0  0  0  0  0  0  0
    0.7145   -0.4121    0.0000 H   0  0  0  0  0  0  0  0  0  0  0  0
   -1.3184    0.4129    0.0000 H   0  0  0  0  0  0  0  0  0  0  0  0
   -2.1434    1.2379    0.0000 H   0  0  0  0  0  0  0  0  0  0  0  0
   -2.9684    0.4129    0.0000 H   0  0  0  0  0  0  0  0  0  0  0  0
  1  2  1  0  0  0  0
  2  3  2  0  0  0  0
  2  4  1  0  0  0  0
  4  5  1  0  0  0  0
  5  6  1  0  0  0  0
  6  7  2  0  0  0  0
  7  8  1  0  0  0  0
  8  9  2  0  0  0  0
  8 10  1  0  0  0  0
 10 11  1  0  0  0  0
 11 12  3  0  0  0  0
 10 13  2  0  0  0  0
 13 14  1  0  0  0  0
  6 14  1  0  0  0  0
 13 15  1  0  0  0  0
 15 16  4  0  0  0  0
 16 17  4  0  0  0  0
 17 18  4  0  0  0  0
 18 19  4  0  0  0  0
 19 20  1  0  0  0  0
 20 21  1  0  0  0  0
 19 22  4  0  0  0  0
 15 22  4  0  0  0  0
  1 23  1  0  0  0  0
 23 24  4  0  0  0  0
 24 25  4  0  0  0  0
 25 26  4  0  0  0  0
 26 27  4  0  0  0  0
 27 28  4  0  0  0  0
 23 28  4  0  0  0  0
 26 29  1  0  0  0  0
 29 30  2  0  0  0  0
 29 31  1  0  0  0  0
  1 32  1  0  0  0  0
  4 33  1  0  0  0  0
  4 34  1  0  0  0  0
 14 35  1  0  0  0  0
 16 36  1  0  0  0  0
 17 37  1  0  0  0  0
 18 38  1  0  0  0  0
 21 39  1  0  0  0  0
 21 40  1  0  0  0  0
 21 41  1  0  0  0  0
 22 42  1  0  0  0  0
 24 43  1  0  0  0  0
 25 44  1  0  0  0  0
 27 45  1  0  0  0  0
 28 46  1  0  0  0  0
 31 47  1  0  0  0  0
 31 48  1  0  0  0  0
 31 49  1  0  0  0  0
M  END
> <Compound_name>
13

> <Standard Type>
IC50

> <Standard Relation>
'='

> <Standard Value>
8.2979345671878E12

> <Standard Units>
nM

> <Outcome>
Inactive

> <InChIKey>
PWZKDBYJLZTANB-UHFFFAOYSA-N

> <Molecule ChEMBL ID>
CHEMBL210632

$$$$

  Mrv1817 04132013512D          

 33 34  0  0  0  0            999 V2000
    0.0000   -0.8250    0.0000 O   0  0  0  0  0  0  0  0  0  0  0  0
    0.7145   -1.2375    0.0000 C   0  0  0  0  0  0  0  0  0  0  0  0
    1.4289   -0.8250    0.0000 O   0  0  0  0  0  0  0  0  0  0  0  0
    0.7145   -2.0625    0.0000 C   0  0  0  0  0  0  0  0  0  0  0  0
    0.0000   -2.4750    0.0000 C   0  0  0  0  0  0  0  0  0  0  0  0
    0.0000   -3.3000    0.0000 C   0  0  0  0  0  0  0  0  0  0  0  0
    0.7145   -3.7125    0.0000 C   0  0  0  0  0  0  0  0  0  0  0  0
    1.4289   -3.3000    0.0000 C   0  0  0  0  0  0  0  0  0  0  0  0
    1.4289   -2.4750    0.0000 C   0  0  0  0  0  0  0  0  0  0  0  0
    2.1434   -2.0625    0.0000 S   0  0  0  0  0  0  0  0  0  0  0  0
    2.5559   -2.7770    0.0000 O   0  0  0  0  0  0  0  0  0  0  0  0
    1.7309   -1.3480    0.0000 O   0  0  0  0  0  0  0  0  0  0  0  0
    2.8579   -1.6500    0.0000 C   0  0  0  0  0  0  0  0  0  0  0  0
    2.8579   -0.8250    0.0000 C   0  0  0  0  0  0  0  0  0  0  0  0
    3.5724   -0.4125    0.0000 C   0  0  0  0  0  0  0  0  0  0  0  0
    4.2868   -0.8250    0.0000 C   0  0  0  0  0  0  0  0  0  0  0  0
    4.2868   -1.6500    0.0000 C   0  0  0  0  0  0  0  0  0  0  0  0
    3.5724   -2.0625    0.0000 C   0  0  0  0  0  0  0  0  0  0  0  0
    3.5724   -2.8875    0.0000 C   0  0  0  0  0  0  0  0  0  0  0  0
    2.8579   -3.3000    0.0000 O   0  0  0  0  0  0  0  0  0  0  0  0
    4.2868   -3.3000    0.0000 C   0  0  0  0  0  0  0  0  0  0  0  0
    0.0000   -0.0000    0.0000 H   0  0  0  0  0  0  0  0  0  0  0  0
   -0.7145   -2.0625    0.0000 H   0  0  0  0  0  0  0  0  0  0  0  0
   -0.7145   -3.7125    0.0000 H   0  0  0  0  0  0  0  0  0  0  0  0
    0.7145   -4.5375    0.0000 H   0  0  0  0  0  0  0  0  0  0  0  0
    2.1434   -3.7125    0.0000 H   0  0  0  0  0  0  0  0  0  0  0  0
    2.1434   -0.4125    0.0000 H   0  0  0  0  0  0  0  0  0  0  0  0
    3.5724    0.4125    0.0000 H   0  0  0  0  0  0  0  0  0  0  0  0
    5.0013   -0.4125    0.0000 H   0  0  0  0  0  0  0  0  0  0  0  0
    5.0013   -2.0625    0.0000 H   0  0  0  0  0  0  0  0  0  0  0  0
    3.8743   -4.0145    0.0000 H   0  0  0  0  0  0  0  0  0  0  0  0
    5.0013   -3.7125    0.0000 H   0  0  0  0  0  0  0  0  0  0  0  0
    4.6993   -2.5855    0.0000 H   0  0  0  0  0  0  0  0  0  0  0  0
  1  2  1  0  0  0  0
  2  3  2  0  0  0  0
  2  4  1  0  0  0  0
  4  5  4  0  0  0  0
  5  6  4  0  0  0  0
  6  7  4  0  0  0  0
  7  8  4  0  0  0  0
  8  9  4  0  0  0  0
  4  9  4  0  0  0  0
  9 10  1  0  0  0  0
 10 11  2  0  0  0  0
 10 12  2  0  0  0  0
 10 13  1  0  0  0  0
 13 14  4  0  0  0  0
 14 15  4  0  0  0  0
 15 16  4  0  0  0  0
 16 17  4  0  0  0  0
 17 18  4  0  0  0  0
 13 18  4  0  0  0  0
 18 19  1  0  0  0  0
 19 20  2  0  0  0  0
 19 21  1  0  0  0  0
  1 22  1  0  0  0  0
  5 23  1  0  0  0  0
  6 24  1  0  0  0  0
  7 25  1  0  0  0  0
  8 26  1  0  0  0  0
 14 27  1  0  0  0  0
 15 28  1  0  0  0  0
 16 29  1  0  0  0  0
 17 30  1  0  0  0  0
 21 31  1  0  0  0  0
 21 32  1  0  0  0  0
 21 33  1  0  0  0  0
M  END
> <Compound_name>
12

> <Standard Type>
IC50

> <Standard Relation>
'='

> <Standard Value>
16000.0

> <Standard Units>
nM

> <Outcome>
Inactive

> <InChIKey>
PZDMHBOCYKZMGI-UHFFFAOYSA-N

> <Molecule ChEMBL ID>
CHEMBL377253

$$$$

  Mrv1817 04132013512D          

 47 50  0  0  0  0            999 V2000
   -3.4656   -2.9487    0.0000 N   0  0  0  0  0  0  0  0  0  0  0  0
   -2.7512   -2.5362    0.0000 C   0  0  0  0  0  0  0  0  0  0  0  0
   -2.7512   -1.7112    0.0000 O   0  0  0  0  0  0  0  0  0  0  0  0
   -2.0367   -2.9487    0.0000 C   0  0  0  0  0  0  0  0  0  0  0  0
   -1.3222   -2.5362    0.0000 S   0  0  0  0  0  0  0  0  0  0  0  0
   -0.6078   -2.9487    0.0000 C   0  0  0  0  0  0  0  0  0  0  0  0
    0.1067   -2.5362    0.0000 N   0  0  0  0  0  0  0  0  0  0  0  0
    0.8212   -2.9487    0.0000 C   0  0  0  0  0  0  0  0  0  0  0  0
    0.8212   -3.7737    0.0000 C   0  0  0  0  0  0  0  0  0  0  0  0
    0.1067   -4.1862    0.0000 C   0  0  0  0  0  0  0  0  0  0  0  0
   -0.6078   -3.7737    0.0000 N   0  0  0  0  0  0  0  0  0  0  0  0
    0.1067   -5.0112    0.0000 C   0  0  0  0  0  0  0  0  0  0  0  0
    0.7741   -5.4962    0.0000 O   0  0  0  0  0  0  0  0  0  0  0  0
    0.5192   -6.2808    0.0000 N   0  0  0  0  0  0  0  0  0  0  0  0
   -0.3058   -6.2808    0.0000 C   0  0  0  0  0  0  0  0  0  0  0  0
   -0.5607   -5.4962    0.0000 C   0  0  0  0  0  0  0  0  0  0  0  0
   -0.7907   -6.9482    0.0000 C   0  0  0  0  0  0  0  0  0  0  0  0
   -0.4552   -7.7019    0.0000 C   0  0  0  0  0  0  0  0  0  0  0  0
   -0.9401   -8.3693    0.0000 C   0  0  0  0  0  0  0  0  0  0  0  0
   -1.7606   -8.2831    0.0000 C   0  0  0  0  0  0  0  0  0  0  0  0
   -2.2455   -8.9505    0.0000 Cl  0  0  0  0  0  0  0  0  0  0  0  0
   -2.0961   -7.5294    0.0000 C   0  0  0  0  0  0  0  0  0  0  0  0
   -1.6112   -6.8620    0.0000 C   0  0  0  0  0  0  0  0  0  0  0  0
   -1.9468   -6.1083    0.0000 Cl  0  0  0  0  0  0  0  0  0  0  0  0
   -4.1801   -2.5362    0.0000 C   0  0  0  0  0  0  0  0  0  0  0  0
   -4.8946   -2.9487    0.0000 C   0  0  0  0  0  0  0  0  0  0  0  0
   -5.6091   -2.5362    0.0000 C   0  0  0  0  0  0  0  0  0  0  0  0
   -5.6091   -1.7112    0.0000 C   0  0  0  0  0  0  0  0  0  0  0  0
   -4.8946   -1.2987    0.0000 C   0  0  0  0  0  0  0  0  0  0  0  0
   -4.1801   -1.7112    0.0000 C   0  0  0  0  0  0  0  0  0  0  0  0
   -6.3235   -1.2987    0.0000 C   0  0  0  0  0  0  0  0  0  0  0  0
   -7.0380   -0.8862    0.0000 F   0  0  0  0  0  0  0  0  0  0  0  0
   -5.9110   -0.5843    0.0000 F   0  0  0  0  0  0  0  0  0  0  0  0
   -6.7360   -2.0132    0.0000 F   0  0  0  0  0  0  0  0  0  0  0  0
   -3.4656   -3.7737    0.0000 H   0  0  0  0  0  0  0  0  0  0  0  0
   -2.4070   -3.6860    0.0000 H   0  0  0  0  0  0  0  0  0  0  0  0
   -1.6664   -3.6860    0.0000 H   0  0  0  0  0  0  0  0  0  0  0  0
    1.5356   -2.5362    0.0000 H   0  0  0  0  0  0  0  0  0  0  0  0
    1.5356   -4.1862    0.0000 H   0  0  0  0  0  0  0  0  0  0  0  0
   -1.3454   -5.2412    0.0000 H   0  0  0  0  0  0  0  0  0  0  0  0
    0.3653   -7.7881    0.0000 H   0  0  0  0  0  0  0  0  0  0  0  0
   -0.6045   -9.1230    0.0000 H   0  0  0  0  0  0  0  0  0  0  0  0
   -2.9166   -7.4432    0.0000 H   0  0  0  0  0  0  0  0  0  0  0  0
   -4.8946   -3.7737    0.0000 H   0  0  0  0  0  0  0  0  0  0  0  0
   -6.3235   -2.9487    0.0000 H   0  0  0  0  0  0  0  0  0  0  0  0
   -4.8946   -0.4737    0.0000 H   0  0  0  0  0  0  0  0  0  0  0  0
   -3.4656   -1.2987    0.0000 H   0  0  0  0  0  0  0  0  0  0  0  0
  1  2  1  0  0  0  0
  2  3  2  0  0  0  0
  2  4  1  0  0  0  0
  4  5  1  0  0  0  0
  5  6  1  0  0  0  0
  6  7  4  0  0  0  0
  7  8  4  0  0  0  0
  8  9  4  0  0  0  0
  9 10  4  0  0  0  0
 10 11  4  0  0  0  0
  6 11  4  0  0  0  0
 10 12  1  0  0  0  0
 12 13  4  0  0  0  0
 13 14  4  0  0  0  0
 14 15  4  0  0  0  0
 15 16  4  0  0  0  0
 12 16  4  0  0  0  0
 15 17  1  0  0  0  0
 17 18  4  0  0  0  0
 18 19  4  0  0  0  0
 19 20  4  0  0  0  0
 20 21  1  0  0  0  0
 20 22  4  0  0  0  0
 22 23  4  0  0  0  0
 17 23  4  0  0  0  0
 23 24  1  0  0  0  0
  1 25  1  0  0  0  0
 25 26  4  0  0  0  0
 26 27  4  0  0  0  0
 27 28  4  0  0  0  0
 28 29  4  0  0  0  0
 29 30  4  0  0  0  0
 25 30  4  0  0  0  0
 28 31  1  0  0  0  0
 31 32  1  0  0  0  0
 31 33  1  0  0  0  0
 31 34  1  0  0  0  0
  1 35  1  0  0  0  0
  4 36  1  0  0  0  0
  4 37  1  0  0  0  0
  8 38  1  0  0  0  0
  9 39  1  0  0  0  0
 16 40  1  0  0  0  0
 18 41  1  0  0  0  0
 19 42  1  0  0  0  0
 22 43  1  0  0  0  0
 26 44  1  0  0  0  0
 27 45  1  0  0  0  0
 29 46  1  0  0  0  0
 30 47  1  0  0  0  0
M  END
> <Compound_name>
7

> <Standard Type>
IC50

> <Standard Relation>
'='

> <Standard Value>
3.303467240787985E13

> <Standard Units>
nM

> <Outcome>
Inactive

> <InChIKey>
QECWOSUSNVKLGQ-UHFFFAOYSA-N

> <Molecule ChEMBL ID>
CHEMBL210097

$$$$

  Mrv1817 04132013512D          

 32 35  0  0  0  0            999 V2000
   -0.5367   -1.7691    0.0000 C   0  0  0  0  0  0  0  0  0  0  0  0
    0.0764   -2.3211    0.0000 C   0  0  0  0  0  0  0  0  0  0  0  0
   -0.2591   -3.0748    0.0000 S   0  0  0  0  0  0  0  0  0  0  0  0
   -1.0796   -2.9886    0.0000 C   0  0  0  0  0  0  0  0  0  0  0  0
   -1.6927   -3.5406    0.0000 C   0  0  0  0  0  0  0  0  0  0  0  0
   -2.4773   -3.2856    0.0000 C   0  0  0  0  0  0  0  0  0  0  0  0
   -2.6488   -2.4787    0.0000 C   0  0  0  0  0  0  0  0  0  0  0  0
   -2.0357   -1.9266    0.0000 C   0  0  0  0  0  0  0  0  0  0  0  0
   -1.2511   -2.1816    0.0000 C   0  0  0  0  0  0  0  0  0  0  0  0
    0.8834   -2.1496    0.0000 C   0  0  0  0  0  0  0  0  0  0  0  0
    1.1384   -1.3650    0.0000 N   0  0  0  0  0  0  0  0  0  0  0  0
    0.6534   -0.6975    0.0000 C   0  0  0  0  0  0  0  0  0  0  0  0
   -0.1716   -0.6975    0.0000 O   0  0  0  0  0  0  0  0  0  0  0  0
    1.1384   -0.0301    0.0000 C   0  0  0  0  0  0  0  0  0  0  0  0
    0.8834    0.7545    0.0000 O   0  0  0  0  0  0  0  0  0  0  0  0
    1.9230   -0.2850    0.0000 C   0  0  0  0  0  0  0  0  0  0  0  0
    2.6374    0.1275    0.0000 C   0  0  0  0  0  0  0  0  0  0  0  0
    3.3519   -0.2850    0.0000 C   0  0  0  0  0  0  0  0  0  0  0  0
    3.3519   -1.1100    0.0000 C   0  0  0  0  0  0  0  0  0  0  0  0
    2.6374   -1.5225    0.0000 C   0  0  0  0  0  0  0  0  0  0  0  0
    1.9230   -1.1100    0.0000 C   0  0  0  0  0  0  0  0  0  0  0  0
   -0.4504   -0.9486    0.0000 H   0  0  0  0  0  0  0  0  0  0  0  0
   -1.5212   -4.3476    0.0000 H   0  0  0  0  0  0  0  0  0  0  0  0
   -3.0904   -3.8377    0.0000 H   0  0  0  0  0  0  0  0  0  0  0  0
   -3.4335   -2.2237    0.0000 H   0  0  0  0  0  0  0  0  0  0  0  0
   -2.2073   -1.1197    0.0000 H   0  0  0  0  0  0  0  0  0  0  0  0
    1.1016   -2.9452    0.0000 H   0  0  0  0  0  0  0  0  0  0  0  0
    1.6519   -2.4497    0.0000 H   0  0  0  0  0  0  0  0  0  0  0  0
    2.6374    0.9525    0.0000 H   0  0  0  0  0  0  0  0  0  0  0  0
    4.0664    0.1275    0.0000 H   0  0  0  0  0  0  0  0  0  0  0  0
    4.0664   -1.5225    0.0000 H   0  0  0  0  0  0  0  0  0  0  0  0
    2.6374   -2.3475    0.0000 H   0  0  0  0  0  0  0  0  0  0  0  0
  1  2  4  0  0  0  0
  2  3  4  0  0  0  0
  3  4  4  0  0  0  0
  4  5  4  0  0  0  0
  5  6  4  0  0  0  0
  6  7  4  0  0  0  0
  7  8  4  0  0  0  0
  8  9  4  0  0  0  0
  1  9  4  0  0  0  0
  4  9  4  0  0  0  0
  2 10  1  0  0  0  0
 10 11  1  0  0  0  0
 11 12  1  0  0  0  0
 12 13  2  0  0  0  0
 12 14  1  0  0  0  0
 14 15  2  0  0  0  0
 14 16  1  0  0  0  0
 16 17  4  0  0  0  0
 17 18  4  0  0  0  0
 18 19  4  0  0  0  0
 19 20  4  0  0  0  0
 20 21  4  0  0  0  0
 11 21  1  0  0  0  0
 16 21  4  0  0  0  0
  1 22  1  0  0  0  0
  5 23  1  0  0  0  0
  6 24  1  0  0  0  0
  7 25  1  0  0  0  0
  8 26  1  0  0  0  0
 10 27  1  0  0  0  0
 10 28  1  0  0  0  0
 17 29  1  0  0  0  0
 18 30  1  0  0  0  0
 19 31  1  0  0  0  0
 20 32  1  0  0  0  0
M  END
> <Compound_name>
4h

> <Standard Type>
IC50

> <Standard Relation>
'='

> <Standard Value>
13110.0

> <Standard Units>
nM

> <Outcome>
Inactive

> <InChIKey>
QGWPMYZWJXKBHT-UHFFFAOYSA-N

> <Molecule ChEMBL ID>
CHEMBL426082

$$$$

  Mrv1817 04132013512D          

 27 29  0  0  0  0            999 V2000
    1.1387   -1.3654    0.0000 C   0  0  0  0  0  0  0  0  0  0  0  0
    0.6538   -0.6979    0.0000 C   0  0  0  0  0  0  0  0  0  0  0  0
    1.1387   -0.0305    0.0000 O   0  0  0  0  0  0  0  0  0  0  0  0
    1.9233   -0.2854    0.0000 C   0  0  0  0  0  0  0  0  0  0  0  0
    2.6378    0.1271    0.0000 C   0  0  0  0  0  0  0  0  0  0  0  0
    3.3523   -0.2854    0.0000 C   0  0  0  0  0  0  0  0  0  0  0  0
    3.3523   -1.1104    0.0000 C   0  0  0  0  0  0  0  0  0  0  0  0
    2.6378   -1.5229    0.0000 C   0  0  0  0  0  0  0  0  0  0  0  0
    1.9233   -1.1104    0.0000 C   0  0  0  0  0  0  0  0  0  0  0  0
   -0.1712   -0.6979    0.0000 C   0  0  0  0  0  0  0  0  0  0  0  0
   -0.5837    0.0165    0.0000 O   0  0  0  0  0  0  0  0  0  0  0  0
   -0.5837   -1.4124    0.0000 O   0  0  0  0  0  0  0  0  0  0  0  0
   -1.4087   -1.4124    0.0000 C   0  0  0  0  0  0  0  0  0  0  0  0
   -1.8212   -2.1269    0.0000 C   0  0  0  0  0  0  0  0  0  0  0  0
   -2.6462   -2.1269    0.0000 N   0  0  0  0  0  0  0  0  0  0  0  0
   -3.0587   -1.4124    0.0000 C   0  0  0  0  0  0  0  0  0  0  0  0
   -2.6462   -0.6979    0.0000 C   0  0  0  0  0  0  0  0  0  0  0  0
   -3.0587    0.0165    0.0000 Cl  0  0  0  0  0  0  0  0  0  0  0  0
   -1.8212   -0.6979    0.0000 C   0  0  0  0  0  0  0  0  0  0  0  0
    0.8838   -2.1500    0.0000 H   0  0  0  0  0  0  0  0  0  0  0  0
    2.6378    0.9521    0.0000 H   0  0  0  0  0  0  0  0  0  0  0  0
    4.0668    0.1271    0.0000 H   0  0  0  0  0  0  0  0  0  0  0  0
    4.0668   -1.5229    0.0000 H   0  0  0  0  0  0  0  0  0  0  0  0
    2.6378   -2.3479    0.0000 H   0  0  0  0  0  0  0  0  0  0  0  0
   -1.4087   -2.8413    0.0000 H   0  0  0  0  0  0  0  0  0  0  0  0
   -3.8837   -1.4124    0.0000 H   0  0  0  0  0  0  0  0  0  0  0  0
   -1.4087    0.0165    0.0000 H   0  0  0  0  0  0  0  0  0  0  0  0
  1  2  4  0  0  0  0
  2  3  4  0  0  0  0
  3  4  4  0  0  0  0
  4  5  4  0  0  0  0
  5  6  4  0  0  0  0
  6  7  4  0  0  0  0
  7  8  4  0  0  0  0
  8  9  4  0  0  0  0
  1  9  4  0  0  0  0
  4  9  4  0  0  0  0
  2 10  1  0  0  0  0
 10 11  2  0  0  0  0
 10 12  1  0  0  0  0
 12 13  1  0  0  0  0
 13 14  4  0  0  0  0
 14 15  4  0  0  0  0
 15 16  4  0  0  0  0
 16 17  4  0  0  0  0
 17 18  1  0  0  0  0
 17 19  4  0  0  0  0
 13 19  4  0  0  0  0
  1 20  1  0  0  0  0
  5 21  1  0  0  0  0
  6 22  1  0  0  0  0
  7 23  1  0  0  0  0
  8 24  1  0  0  0  0
 14 25  1  0  0  0  0
 16 26  1  0  0  0  0
 19 27  1  0  0  0  0
M  END
> <Compound_name>
36

> <Standard Type>
IC50

> <Standard Relation>
'='

> <Standard Value>
170.0

> <Standard Units>
nM

> <Outcome>
Active

> <InChIKey>
QHBWMDVARYUYJW-UHFFFAOYSA-N

> <Molecule ChEMBL ID>
CHEMBL426898

$$$$

  Mrv1817 04132013512D          

 40 43  0  0  0  0            999 V2000
    2.8487   -5.1442    0.0000 N   0  0  0  0  0  0  0  0  0  0  0  0
    2.0950   -4.8087    0.0000 C   0  0  0  0  0  0  0  0  0  0  0  0
    1.4276   -5.2936    0.0000 O   0  0  0  0  0  0  0  0  0  0  0  0
    2.0088   -3.9882    0.0000 C   0  0  0  0  0  0  0  0  0  0  0  0
    1.2943   -3.5757    0.0000 S   0  0  0  0  0  0  0  0  0  0  0  0
    1.4659   -2.7687    0.0000 C   0  0  0  0  0  0  0  0  0  0  0  0
    2.2863   -2.6825    0.0000 C   0  0  0  0  0  0  0  0  0  0  0  0
    2.6219   -3.4362    0.0000 C   0  0  0  0  0  0  0  0  0  0  0  0
    0.9138   -2.1556    0.0000 C   0  0  0  0  0  0  0  0  0  0  0  0
    1.1688   -1.3710    0.0000 N   0  0  0  0  0  0  0  0  0  0  0  0
    0.6838   -0.7036    0.0000 C   0  0  0  0  0  0  0  0  0  0  0  0
   -0.1412   -0.7036    0.0000 O   0  0  0  0  0  0  0  0  0  0  0  0
    1.1688   -0.0361    0.0000 C   0  0  0  0  0  0  0  0  0  0  0  0
    0.9138    0.7485    0.0000 O   0  0  0  0  0  0  0  0  0  0  0  0
    1.9534   -0.2911    0.0000 C   0  0  0  0  0  0  0  0  0  0  0  0
    2.6679    0.1214    0.0000 C   0  0  0  0  0  0  0  0  0  0  0  0
    3.3823   -0.2911    0.0000 C   0  0  0  0  0  0  0  0  0  0  0  0
    4.0968    0.1214    0.0000 I   0  0  0  0  0  0  0  0  0  0  0  0
    3.3823   -1.1161    0.0000 C   0  0  0  0  0  0  0  0  0  0  0  0
    2.6679   -1.5286    0.0000 C   0  0  0  0  0  0  0  0  0  0  0  0
    1.9534   -1.1161    0.0000 C   0  0  0  0  0  0  0  0  0  0  0  0
    2.9350   -5.9647    0.0000 C   0  0  0  0  0  0  0  0  0  0  0  0
    3.6886   -6.3003    0.0000 C   0  0  0  0  0  0  0  0  0  0  0  0
    3.7749   -7.1208    0.0000 C   0  0  0  0  0  0  0  0  0  0  0  0
    3.1074   -7.6057    0.0000 C   0  0  0  0  0  0  0  0  0  0  0  0
    3.1937   -8.4262    0.0000 Cl  0  0  0  0  0  0  0  0  0  0  0  0
    2.3538   -7.2701    0.0000 C   0  0  0  0  0  0  0  0  0  0  0  0
    2.2675   -6.4497    0.0000 C   0  0  0  0  0  0  0  0  0  0  0  0
    3.5162   -4.6593    0.0000 H   0  0  0  0  0  0  0  0  0  0  0  0
    2.6988   -1.9680    0.0000 H   0  0  0  0  0  0  0  0  0  0  0  0
    3.4289   -3.6077    0.0000 H   0  0  0  0  0  0  0  0  0  0  0  0
    0.1157   -1.9468    0.0000 H   0  0  0  0  0  0  0  0  0  0  0  0
    0.2697   -2.6711    0.0000 H   0  0  0  0  0  0  0  0  0  0  0  0
    2.6679    0.9464    0.0000 H   0  0  0  0  0  0  0  0  0  0  0  0
    4.0968   -1.5286    0.0000 H   0  0  0  0  0  0  0  0  0  0  0  0
    1.9683   -1.9660    0.0000 H   0  0  0  0  0  0  0  0  0  0  0  0
    4.3561   -5.8154    0.0000 H   0  0  0  0  0  0  0  0  0  0  0  0
    4.5285   -7.4563    0.0000 H   0  0  0  0  0  0  0  0  0  0  0  0
    1.6863   -7.7551    0.0000 H   0  0  0  0  0  0  0  0  0  0  0  0
    1.5138   -6.1141    0.0000 H   0  0  0  0  0  0  0  0  0  0  0  0
  1  2  1  0  0  0  0
  2  3  2  0  0  0  0
  2  4  1  0  0  0  0
  4  5  4  0  0  0  0
  5  6  4  0  0  0  0
  6  7  4  0  0  0  0
  7  8  4  0  0  0  0
  4  8  4  0  0  0  0
  6  9  1  0  0  0  0
  9 10  1  0  0  0  0
 10 11  1  0  0  0  0
 11 12  2  0  0  0  0
 11 13  1  0  0  0  0
 13 14  2  0  0  0  0
 13 15  1  0  0  0  0
 15 16  4  0  0  0  0
 16 17  4  0  0  0  0
 17 18  1  0  0  0  0
 17 19  4  0  0  0  0
 19 20  4  0  0  0  0
 20 21  4  0  0  0  0
 10 21  1  0  0  0  0
 15 21  4  0  0  0  0
  1 22  1  0  0  0  0
 22 23  4  0  0  0  0
 23 24  4  0  0  0  0
 24 25  4  0  0  0  0
 25 26  1  0  0  0  0
 25 27  4  0  0  0  0
 27 28  4  0  0  0  0
 22 28  4  0  0  0  0
  1 29  1  0  0  0  0
  7 30  1  0  0  0  0
  8 31  1  0  0  0  0
  9 32  1  0  0  0  0
  9 33  1  0  0  0  0
 16 34  1  0  0  0  0
 19 35  1  0  0  0  0
 20 36  1  0  0  0  0
 23 37  1  0  0  0  0
 24 38  1  0  0  0  0
 27 39  1  0  0  0  0
 28 40  1  0  0  0  0
M  END
> <Compound_name>
4u

> <Standard Type>
IC50

> <Standard Relation>
'='

> <Standard Value>
12570.0

> <Standard Units>
nM

> <Outcome>
Inactive

> <InChIKey>
QLHBUHQTCJSYDO-UHFFFAOYSA-N

> <Molecule ChEMBL ID>
CHEMBL191575

$$$$

  Mrv1817 04132013512D          

 23 24  0  0  0  0            999 V2000
    4.7812    1.9354    0.0000 N   0  0  0  0  0  0  0  0  0  0  0  0
    4.0668    2.3479    0.0000 C   0  0  0  0  0  0  0  0  0  0  0  0
    4.0668    3.1729    0.0000 O   0  0  0  0  0  0  0  0  0  0  0  0
    3.3523    1.9354    0.0000 C   0  0  0  0  0  0  0  0  0  0  0  0
    3.3523    1.1104    0.0000 C   0  0  0  0  0  0  0  0  0  0  0  0
    2.6378    0.6979    0.0000 C   0  0  0  0  0  0  0  0  0  0  0  0
    1.9233    1.1104    0.0000 C   0  0  0  0  0  0  0  0  0  0  0  0
    1.1387    0.8555    0.0000 N   0  0  0  0  0  0  0  0  0  0  0  0
    0.6538    1.5229    0.0000 C   0  0  0  0  0  0  0  0  0  0  0  0
   -0.1712    1.5229    0.0000 O   0  0  0  0  0  0  0  0  0  0  0  0
    1.1387    2.1904    0.0000 C   0  0  0  0  0  0  0  0  0  0  0  0
    0.8838    2.9750    0.0000 O   0  0  0  0  0  0  0  0  0  0  0  0
    1.9233    1.9354    0.0000 C   0  0  0  0  0  0  0  0  0  0  0  0
    2.6378    2.3479    0.0000 C   0  0  0  0  0  0  0  0  0  0  0  0
    0.8838    0.0709    0.0000 C   0  0  0  0  0  0  0  0  0  0  0  0
    4.7812    1.1104    0.0000 H   0  0  0  0  0  0  0  0  0  0  0  0
    5.4957    2.3479    0.0000 H   0  0  0  0  0  0  0  0  0  0  0  0
    4.0668    0.6979    0.0000 H   0  0  0  0  0  0  0  0  0  0  0  0
    2.6378   -0.1271    0.0000 H   0  0  0  0  0  0  0  0  0  0  0  0
    2.6378    3.1729    0.0000 H   0  0  0  0  0  0  0  0  0  0  0  0
    0.0992    0.3258    0.0000 H   0  0  0  0  0  0  0  0  0  0  0  0
    0.6288   -0.7138    0.0000 H   0  0  0  0  0  0  0  0  0  0  0  0
    1.6684   -0.1841    0.0000 H   0  0  0  0  0  0  0  0  0  0  0  0
  1  2  1  0  0  0  0
  2  3  2  0  0  0  0
  2  4  1  0  0  0  0
  4  5  4  0  0  0  0
  5  6  4  0  0  0  0
  6  7  4  0  0  0  0
  7  8  1  0  0  0  0
  8  9  1  0  0  0  0
  9 10  2  0  0  0  0
  9 11  1  0  0  0  0
 11 12  2  0  0  0  0
 11 13  1  0  0  0  0
  7 13  4  0  0  0  0
 13 14  4  0  0  0  0
  4 14  4  0  0  0  0
  8 15  1  0  0  0  0
  1 16  1  0  0  0  0
  1 17  1  0  0  0  0
  5 18  1  0  0  0  0
  6 19  1  0  0  0  0
 14 20  1  0  0  0  0
 15 21  1  0  0  0  0
 15 22  1  0  0  0  0
 15 23  1  0  0  0  0
M  END
> <Compound_name>
5a

> <Standard Type>
Ki

> <Standard Relation>
'='

> <Standard Value>
71481.2

> <Standard Units>
nM

> <Outcome>
Inactive

> <InChIKey>
QUFAZQGZSQBRME-UHFFFAOYSA-N

> <Molecule ChEMBL ID>
CHEMBL148483

$$$$

  Mrv1817 04132013512D          

 28 30  0  0  0  0            999 V2000
    2.3577   -4.2051    0.0000 C   0  0  0  0  0  0  0  0  0  0  0  0
    3.0251   -4.6900    0.0000 S   0  0  0  0  0  0  0  0  0  0  0  0
    2.7702   -5.4746    0.0000 C   0  0  0  0  0  0  0  0  0  0  0  0
    1.9452   -5.4746    0.0000 C   0  0  0  0  0  0  0  0  0  0  0  0
    1.6902   -4.6900    0.0000 C   0  0  0  0  0  0  0  0  0  0  0  0
    3.2551   -6.1420    0.0000 S   0  0  0  0  0  0  0  0  0  0  0  0
    2.5876   -6.6270    0.0000 O   0  0  0  0  0  0  0  0  0  0  0  0
    3.9225   -5.6571    0.0000 O   0  0  0  0  0  0  0  0  0  0  0  0
    3.7400   -6.8095    0.0000 C   0  0  0  0  0  0  0  0  0  0  0  0
    3.4044   -7.5632    0.0000 C   0  0  0  0  0  0  0  0  0  0  0  0
    3.8169   -8.2776    0.0000 N   0  0  0  0  0  0  0  0  0  0  0  0
    3.2649   -8.8907    0.0000 C   0  0  0  0  0  0  0  0  0  0  0  0
    2.5112   -8.5552    0.0000 C   0  0  0  0  0  0  0  0  0  0  0  0
    2.5975   -7.7347    0.0000 S   0  0  0  0  0  0  0  0  0  0  0  0
    3.4364   -9.6977    0.0000 C   0  0  0  0  0  0  0  0  0  0  0  0
    4.1901  -10.0332    0.0000 S   0  0  0  0  0  0  0  0  0  0  0  0
    4.1039  -10.8537    0.0000 C   0  0  0  0  0  0  0  0  0  0  0  0
    4.7170  -11.4058    0.0000 Cl  0  0  0  0  0  0  0  0  0  0  0  0
    3.2969  -11.0253    0.0000 C   0  0  0  0  0  0  0  0  0  0  0  0
    2.8844  -10.3108    0.0000 C   0  0  0  0  0  0  0  0  0  0  0  0
    2.3577   -3.3801    0.0000 H   0  0  0  0  0  0  0  0  0  0  0  0
    1.4602   -6.1420    0.0000 H   0  0  0  0  0  0  0  0  0  0  0  0
    0.9056   -4.4350    0.0000 H   0  0  0  0  0  0  0  0  0  0  0  0
    4.5119   -7.1006    0.0000 H   0  0  0  0  0  0  0  0  0  0  0  0
    4.4345   -6.3642    0.0000 H   0  0  0  0  0  0  0  0  0  0  0  0
    1.7968   -8.9677    0.0000 H   0  0  0  0  0  0  0  0  0  0  0  0
    2.9613  -11.7789    0.0000 H   0  0  0  0  0  0  0  0  0  0  0  0
    2.0639  -10.2245    0.0000 H   0  0  0  0  0  0  0  0  0  0  0  0
  1  2  4  0  0  0  0
  2  3  4  0  0  0  0
  3  4  4  0  0  0  0
  4  5  4  0  0  0  0
  1  5  4  0  0  0  0
  3  6  1  0  0  0  0
  6  7  2  0  0  0  0
  6  8  2  0  0  0  0
  6  9  1  0  0  0  0
  9 10  1  0  0  0  0
 10 11  4  0  0  0  0
 11 12  4  0  0  0  0
 12 13  4  0  0  0  0
 13 14  4  0  0  0  0
 10 14  4  0  0  0  0
 12 15  1  0  0  0  0
 15 16  4  0  0  0  0
 16 17  4  0  0  0  0
 17 18  1  0  0  0  0
 17 19  4  0  0  0  0
 19 20  4  0  0  0  0
 15 20  4  0  0  0  0
  1 21  1  0  0  0  0
  4 22  1  0  0  0  0
  5 23  1  0  0  0  0
  9 24  1  0  0  0  0
  9 25  1  0  0  0  0
 13 26  1  0  0  0  0
 19 27  1  0  0  0  0
 20 28  1  0  0  0  0
M  END
> <Compound_name>
21

> <Standard Type>
IC50

> <Standard Relation>
'='

> <Standard Value>
18000.0

> <Standard Units>
nM

> <Outcome>
Inactive

> <InChIKey>
RNWCXVNZHBPXSO-UHFFFAOYSA-N

> <Molecule ChEMBL ID>
CHEMBL215733

$$$$

  Mrv1817 04132013512D          

 27 28  0  0  0  0            999 V2000
    0.7145   -1.2375    0.0000 N   0  0  0  0  0  0  0  0  0  0  0  0
    0.7145   -2.0625    0.0000 C   0  0  0  0  0  0  0  0  0  0  0  0
    1.4289   -2.4750    0.0000 N   0  0  0  0  0  0  0  0  0  0  0  0
    1.4289   -3.3000    0.0000 C   0  0  0  0  0  0  0  0  0  0  0  0
    0.7145   -3.7125    0.0000 C   0  0  0  0  0  0  0  0  0  0  0  0
   -0.0000   -3.3000    0.0000 C   0  0  0  0  0  0  0  0  0  0  0  0
   -0.0000   -2.4750    0.0000 N   0  0  0  0  0  0  0  0  0  0  0  0
   -0.7145   -3.7125    0.0000 N   0  0  0  0  0  0  0  0  0  0  0  0
    0.7145   -4.5375    0.0000 S   0  0  0  0  0  0  0  0  0  0  0  0
   -0.1105   -4.5375    0.0000 O   0  0  0  0  0  0  0  0  0  0  0  0
    1.5395   -4.5375    0.0000 O   0  0  0  0  0  0  0  0  0  0  0  0
    0.7145   -5.3625    0.0000 C   0  0  0  0  0  0  0  0  0  0  0  0
    1.4289   -5.7750    0.0000 C   0  0  0  0  0  0  0  0  0  0  0  0
    1.4289   -6.6000    0.0000 C   0  0  0  0  0  0  0  0  0  0  0  0
    0.7145   -7.0125    0.0000 C   0  0  0  0  0  0  0  0  0  0  0  0
    0.7145   -7.8375    0.0000 Cl  0  0  0  0  0  0  0  0  0  0  0  0
   -0.0000   -6.6000    0.0000 C   0  0  0  0  0  0  0  0  0  0  0  0
   -0.0000   -5.7750    0.0000 C   0  0  0  0  0  0  0  0  0  0  0  0
    1.4289   -0.8250    0.0000 H   0  0  0  0  0  0  0  0  0  0  0  0
   -0.0000   -0.8250    0.0000 H   0  0  0  0  0  0  0  0  0  0  0  0
    2.1434   -3.7125    0.0000 H   0  0  0  0  0  0  0  0  0  0  0  0
   -1.4289   -3.3000    0.0000 H   0  0  0  0  0  0  0  0  0  0  0  0
   -0.7145   -4.5375    0.0000 H   0  0  0  0  0  0  0  0  0  0  0  0
    2.1434   -5.3625    0.0000 H   0  0  0  0  0  0  0  0  0  0  0  0
    2.1434   -7.0125    0.0000 H   0  0  0  0  0  0  0  0  0  0  0  0
   -0.7145   -7.0125    0.0000 H   0  0  0  0  0  0  0  0  0  0  0  0
   -0.7145   -5.3625    0.0000 H   0  0  0  0  0  0  0  0  0  0  0  0
  1  2  1  0  0  0  0
  2  3  4  0  0  0  0
  3  4  4  0  0  0  0
  4  5  4  0  0  0  0
  5  6  4  0  0  0  0
  6  7  4  0  0  0  0
  2  7  4  0  0  0  0
  6  8  1  0  0  0  0
  5  9  1  0  0  0  0
  9 10  2  0  0  0  0
  9 11  2  0  0  0  0
  9 12  1  0  0  0  0
 12 13  4  0  0  0  0
 13 14  4  0  0  0  0
 14 15  4  0  0  0  0
 15 16  1  0  0  0  0
 15 17  4  0  0  0  0
 17 18  4  0  0  0  0
 12 18  4  0  0  0  0
  1 19  1  0  0  0  0
  1 20  1  0  0  0  0
  4 21  1  0  0  0  0
  8 22  1  0  0  0  0
  8 23  1  0  0  0  0
 13 24  1  0  0  0  0
 14 25  1  0  0  0  0
 17 26  1  0  0  0  0
 18 27  1  0  0  0  0
M  END
> <Compound_name>
5

> <Standard Type>
IC50

> <Standard Relation>
'='

> <Standard Value>
6000.0

> <Standard Units>
nM

> <Outcome>
Active

> <InChIKey>
RPPFHWBHHCJZJS-UHFFFAOYSA-N

> <Molecule ChEMBL ID>
CHEMBL213581

$$$$

  Mrv1817 04132013512D          

 36 37  0  0  0  0            999 V2000
    0.7145   -2.0625    0.0000 C   0  0  0  0  0  0  0  0  0  0  0  0
    1.4289   -2.4750    0.0000 C   0  0  0  0  0  0  0  0  0  0  0  0
    1.4289   -3.3000    0.0000 C   0  0  0  0  0  0  0  0  0  0  0  0
    0.7145   -3.7125    0.0000 C   0  0  0  0  0  0  0  0  0  0  0  0
    0.0000   -3.3000    0.0000 C   0  0  0  0  0  0  0  0  0  0  0  0
    0.0000   -2.4750    0.0000 C   0  0  0  0  0  0  0  0  0  0  0  0
   -0.7145   -2.0625    0.0000 C   0  0  0  0  0  0  0  0  0  0  0  0
    2.1434   -3.7125    0.0000 S   0  0  0  0  0  0  0  0  0  0  0  0
    1.7309   -4.4270    0.0000 O   0  0  0  0  0  0  0  0  0  0  0  0
    2.5559   -2.9980    0.0000 O   0  0  0  0  0  0  0  0  0  0  0  0
    2.8579   -4.1250    0.0000 C   0  0  0  0  0  0  0  0  0  0  0  0
    3.5724   -3.7125    0.0000 N   0  0  0  0  0  0  0  0  0  0  0  0
    4.2868   -4.1250    0.0000 C   0  0  0  0  0  0  0  0  0  0  0  0
    4.2868   -4.9500    0.0000 C   0  0  0  0  0  0  0  0  0  0  0  0
    3.5724   -5.3625    0.0000 C   0  0  0  0  0  0  0  0  0  0  0  0
    2.8579   -4.9500    0.0000 C   0  0  0  0  0  0  0  0  0  0  0  0
    2.1434   -5.3625    0.0000 C   0  0  0  0  0  0  0  0  0  0  0  0
    1.4289   -5.7750    0.0000 N   0  0  0  0  0  0  0  0  0  0  0  0
    3.5724   -6.1875    0.0000 C   0  0  0  0  0  0  0  0  0  0  0  0
    5.0013   -5.3625    0.0000 N   0  0  0  0  0  0  0  0  0  0  0  0
    5.7158   -4.9500    0.0000 O   0  0  0  0  0  0  0  0  0  0  0  0
    5.0013   -6.1875    0.0000 O   0  0  0  0  0  0  0  0  0  0  0  0
    5.0013   -3.7125    0.0000 C   0  0  0  0  0  0  0  0  0  0  0  0
    0.7145   -1.2375    0.0000 H   0  0  0  0  0  0  0  0  0  0  0  0
    2.1434   -2.0625    0.0000 H   0  0  0  0  0  0  0  0  0  0  0  0
    0.7145   -4.5375    0.0000 H   0  0  0  0  0  0  0  0  0  0  0  0
   -0.7145   -3.7125    0.0000 H   0  0  0  0  0  0  0  0  0  0  0  0
   -0.3020   -1.3480    0.0000 H   0  0  0  0  0  0  0  0  0  0  0  0
   -1.4289   -1.6500    0.0000 H   0  0  0  0  0  0  0  0  0  0  0  0
   -1.1270   -2.7770    0.0000 H   0  0  0  0  0  0  0  0  0  0  0  0
    2.7474   -6.1875    0.0000 H   0  0  0  0  0  0  0  0  0  0  0  0
    3.5724   -7.0125    0.0000 H   0  0  0  0  0  0  0  0  0  0  0  0
    4.3974   -6.1875    0.0000 H   0  0  0  0  0  0  0  0  0  0  0  0
    5.4138   -4.4270    0.0000 H   0  0  0  0  0  0  0  0  0  0  0  0
    5.7158   -3.3000    0.0000 H   0  0  0  0  0  0  0  0  0  0  0  0
    4.5888   -2.9980    0.0000 H   0  0  0  0  0  0  0  0  0  0  0  0
  1  2  4  0  0  0  0
  2  3  4  0  0  0  0
  3  4  4  0  0  0  0
  4  5  4  0  0  0  0
  5  6  4  0  0  0  0
  1  6  4  0  0  0  0
  6  7  1  0  0  0  0
  3  8  1  0  0  0  0
  8  9  2  0  0  0  0
  8 10  2  0  0  0  0
  8 11  1  0  0  0  0
 11 12  4  0  0  0  0
 12 13  4  0  0  0  0
 13 14  4  0  0  0  0
 14 15  4  0  0  0  0
 15 16  4  0  0  0  0
 11 16  4  0  0  0  0
 16 17  1  0  0  0  0
 17 18  3  0  0  0  0
 15 19  1  0  0  0  0
 14 20  1  0  0  0  0
 20 21  2  0  0  0  0
 20 22  2  0  0  0  0
 13 23  1  0  0  0  0
  1 24  1  0  0  0  0
  2 25  1  0  0  0  0
  4 26  1  0  0  0  0
  5 27  1  0  0  0  0
  7 28  1  0  0  0  0
  7 29  1  0  0  0  0
  7 30  1  0  0  0  0
 19 31  1  0  0  0  0
 19 32  1  0  0  0  0
 19 33  1  0  0  0  0
 23 34  1  0  0  0  0
 23 35  1  0  0  0  0
 23 36  1  0  0  0  0
M  END
> <Compound_name>
8

> <Standard Type>
IC50

> <Standard Relation>
'='

> <Standard Value>
13000.0

> <Standard Units>
nM

> <Outcome>
Inactive

> <InChIKey>
SWVOLMFAZXVBNL-UHFFFAOYSA-N

> <Molecule ChEMBL ID>
CHEMBL211969

$$$$

  Mrv1817 04132013512D          

 44 47  0  0  0  0            999 V2000
   -3.4657   -2.9487    0.0000 N   0  0  0  0  0  0  0  0  0  0  0  0
   -2.7512   -2.5362    0.0000 C   0  0  0  0  0  0  0  0  0  0  0  0
   -2.7512   -1.7112    0.0000 O   0  0  0  0  0  0  0  0  0  0  0  0
   -2.0367   -2.9487    0.0000 C   0  0  0  0  0  0  0  0  0  0  0  0
   -1.3222   -2.5362    0.0000 S   0  0  0  0  0  0  0  0  0  0  0  0
   -0.6078   -2.9487    0.0000 C   0  0  0  0  0  0  0  0  0  0  0  0
    0.1067   -2.5362    0.0000 N   0  0  0  0  0  0  0  0  0  0  0  0
    0.8212   -2.9487    0.0000 C   0  0  0  0  0  0  0  0  0  0  0  0
    0.8212   -3.7737    0.0000 C   0  0  0  0  0  0  0  0  0  0  0  0
    0.1067   -4.1862    0.0000 C   0  0  0  0  0  0  0  0  0  0  0  0
   -0.6078   -3.7737    0.0000 N   0  0  0  0  0  0  0  0  0  0  0  0
    0.1067   -5.0112    0.0000 C   0  0  0  0  0  0  0  0  0  0  0  0
    0.7741   -5.4961    0.0000 O   0  0  0  0  0  0  0  0  0  0  0  0
    0.5192   -6.2808    0.0000 N   0  0  0  0  0  0  0  0  0  0  0  0
   -0.3058   -6.2808    0.0000 C   0  0  0  0  0  0  0  0  0  0  0  0
   -0.5607   -5.4961    0.0000 C   0  0  0  0  0  0  0  0  0  0  0  0
   -0.7907   -6.9482    0.0000 C   0  0  0  0  0  0  0  0  0  0  0  0
   -0.4552   -7.7019    0.0000 C   0  0  0  0  0  0  0  0  0  0  0  0
   -0.9401   -8.3693    0.0000 C   0  0  0  0  0  0  0  0  0  0  0  0
   -1.7606   -8.2831    0.0000 C   0  0  0  0  0  0  0  0  0  0  0  0
   -2.0961   -7.5294    0.0000 C   0  0  0  0  0  0  0  0  0  0  0  0
   -1.6112   -6.8620    0.0000 C   0  0  0  0  0  0  0  0  0  0  0  0
   -4.1801   -2.5362    0.0000 C   0  0  0  0  0  0  0  0  0  0  0  0
   -4.8946   -2.9487    0.0000 C   0  0  0  0  0  0  0  0  0  0  0  0
   -5.6091   -2.5362    0.0000 C   0  0  0  0  0  0  0  0  0  0  0  0
   -5.6091   -1.7112    0.0000 C   0  0  0  0  0  0  0  0  0  0  0  0
   -6.3235   -1.2987    0.0000 Cl  0  0  0  0  0  0  0  0  0  0  0  0
   -4.8946   -1.2987    0.0000 C   0  0  0  0  0  0  0  0  0  0  0  0
   -4.1801   -1.7112    0.0000 C   0  0  0  0  0  0  0  0  0  0  0  0
   -3.4657   -3.7737    0.0000 H   0  0  0  0  0  0  0  0  0  0  0  0
   -2.4070   -3.6860    0.0000 H   0  0  0  0  0  0  0  0  0  0  0  0
   -1.6664   -3.6860    0.0000 H   0  0  0  0  0  0  0  0  0  0  0  0
    1.5356   -2.5362    0.0000 H   0  0  0  0  0  0  0  0  0  0  0  0
    1.5356   -4.1862    0.0000 H   0  0  0  0  0  0  0  0  0  0  0  0
   -1.3454   -5.2412    0.0000 H   0  0  0  0  0  0  0  0  0  0  0  0
    0.3653   -7.7881    0.0000 H   0  0  0  0  0  0  0  0  0  0  0  0
   -0.6045   -9.1230    0.0000 H   0  0  0  0  0  0  0  0  0  0  0  0
   -2.2455   -8.9505    0.0000 H   0  0  0  0  0  0  0  0  0  0  0  0
   -2.9166   -7.4432    0.0000 H   0  0  0  0  0  0  0  0  0  0  0  0
   -1.9468   -6.1083    0.0000 H   0  0  0  0  0  0  0  0  0  0  0  0
   -4.8946   -3.7737    0.0000 H   0  0  0  0  0  0  0  0  0  0  0  0
   -6.3235   -2.9487    0.0000 H   0  0  0  0  0  0  0  0  0  0  0  0
   -4.8946   -0.4737    0.0000 H   0  0  0  0  0  0  0  0  0  0  0  0
   -3.4657   -1.2987    0.0000 H   0  0  0  0  0  0  0  0  0  0  0  0
  1  2  1  0  0  0  0
  2  3  2  0  0  0  0
  2  4  1  0  0  0  0
  4  5  1  0  0  0  0
  5  6  1  0  0  0  0
  6  7  4  0  0  0  0
  7  8  4  0  0  0  0
  8  9  4  0  0  0  0
  9 10  4  0  0  0  0
 10 11  4  0  0  0  0
  6 11  4  0  0  0  0
 10 12  1  0  0  0  0
 12 13  4  0  0  0  0
 13 14  4  0  0  0  0
 14 15  4  0  0  0  0
 15 16  4  0  0  0  0
 12 16  4  0  0  0  0
 15 17  1  0  0  0  0
 17 18  4  0  0  0  0
 18 19  4  0  0  0  0
 19 20  4  0  0  0  0
 20 21  4  0  0  0  0
 21 22  4  0  0  0  0
 17 22  4  0  0  0  0
  1 23  1  0  0  0  0
 23 24  4  0  0  0  0
 24 25  4  0  0  0  0
 25 26  4  0  0  0  0
 26 27  1  0  0  0  0
 26 28  4  0  0  0  0
 28 29  4  0  0  0  0
 23 29  4  0  0  0  0
  1 30  1  0  0  0  0
  4 31  1  0  0  0  0
  4 32  1  0  0  0  0
  8 33  1  0  0  0  0
  9 34  1  0  0  0  0
 16 35  1  0  0  0  0
 18 36  1  0  0  0  0
 19 37  1  0  0  0  0
 20 38  1  0  0  0  0
 21 39  1  0  0  0  0
 22 40  1  0  0  0  0
 24 41  1  0  0  0  0
 25 42  1  0  0  0  0
 28 43  1  0  0  0  0
 29 44  1  0  0  0  0
M  END
> <Compound_name>
6

> <Standard Type>
IC50

> <Standard Relation>
'='

> <Standard Value>
3.303467240787985E13

> <Standard Units>
nM

> <Outcome>
Inactive

> <InChIKey>
TUBDEXWKZSAMKH-UHFFFAOYSA-N

> <Molecule ChEMBL ID>
CHEMBL208763

$$$$

  Mrv1817 04132013512D          

 32 35  0  0  0  0            999 V2000
   -0.5367   -1.7691    0.0000 C   0  0  0  0  0  0  0  0  0  0  0  0
    0.0764   -2.3211    0.0000 C   0  0  0  0  0  0  0  0  0  0  0  0
   -0.2591   -3.0748    0.0000 S   0  0  0  0  0  0  0  0  0  0  0  0
   -1.0796   -2.9886    0.0000 C   0  0  0  0  0  0  0  0  0  0  0  0
   -1.6927   -3.5406    0.0000 C   0  0  0  0  0  0  0  0  0  0  0  0
   -2.4773   -3.2856    0.0000 C   0  0  0  0  0  0  0  0  0  0  0  0
   -2.6488   -2.4787    0.0000 C   0  0  0  0  0  0  0  0  0  0  0  0
   -2.0357   -1.9266    0.0000 C   0  0  0  0  0  0  0  0  0  0  0  0
   -1.2511   -2.1816    0.0000 C   0  0  0  0  0  0  0  0  0  0  0  0
    0.8834   -2.1496    0.0000 C   0  0  0  0  0  0  0  0  0  0  0  0
    1.1384   -1.3650    0.0000 N   0  0  0  0  0  0  0  0  0  0  0  0
    0.6534   -0.6975    0.0000 C   0  0  0  0  0  0  0  0  0  0  0  0
   -0.1716   -0.6975    0.0000 O   0  0  0  0  0  0  0  0  0  0  0  0
    1.1384   -0.0301    0.0000 C   0  0  0  0  0  0  0  0  0  0  0  0
    0.8834    0.7545    0.0000 O   0  0  0  0  0  0  0  0  0  0  0  0
    1.9230   -0.2850    0.0000 C   0  0  0  0  0  0  0  0  0  0  0  0
    2.6374    0.1275    0.0000 C   0  0  0  0  0  0  0  0  0  0  0  0
    3.3519   -0.2850    0.0000 C   0  0  0  0  0  0  0  0  0  0  0  0
    3.3519   -1.1100    0.0000 C   0  0  0  0  0  0  0  0  0  0  0  0
    2.6374   -1.5225    0.0000 C   0  0  0  0  0  0  0  0  0  0  0  0
    2.6374   -2.3475    0.0000 Br  0  0  0  0  0  0  0  0  0  0  0  0
    1.9230   -1.1100    0.0000 C   0  0  0  0  0  0  0  0  0  0  0  0
   -0.4504   -0.9486    0.0000 H   0  0  0  0  0  0  0  0  0  0  0  0
   -1.5212   -4.3476    0.0000 H   0  0  0  0  0  0  0  0  0  0  0  0
   -3.0904   -3.8377    0.0000 H   0  0  0  0  0  0  0  0  0  0  0  0
   -3.4335   -2.2237    0.0000 H   0  0  0  0  0  0  0  0  0  0  0  0
   -2.2073   -1.1197    0.0000 H   0  0  0  0  0  0  0  0  0  0  0  0
    1.1016   -2.9452    0.0000 H   0  0  0  0  0  0  0  0  0  0  0  0
    1.6519   -2.4497    0.0000 H   0  0  0  0  0  0  0  0  0  0  0  0
    2.6374    0.9525    0.0000 H   0  0  0  0  0  0  0  0  0  0  0  0
    4.0664    0.1275    0.0000 H   0  0  0  0  0  0  0  0  0  0  0  0
    4.0664   -1.5225    0.0000 H   0  0  0  0  0  0  0  0  0  0  0  0
  1  2  4  0  0  0  0
  2  3  4  0  0  0  0
  3  4  4  0  0  0  0
  4  5  4  0  0  0  0
  5  6  4  0  0  0  0
  6  7  4  0  0  0  0
  7  8  4  0  0  0  0
  8  9  4  0  0  0  0
  1  9  4  0  0  0  0
  4  9  4  0  0  0  0
  2 10  1  0  0  0  0
 10 11  1  0  0  0  0
 11 12  1  0  0  0  0
 12 13  2  0  0  0  0
 12 14  1  0  0  0  0
 14 15  2  0  0  0  0
 14 16  1  0  0  0  0
 16 17  4  0  0  0  0
 17 18  4  0  0  0  0
 18 19  4  0  0  0  0
 19 20  4  0  0  0  0
 20 21  1  0  0  0  0
 20 22  4  0  0  0  0
 11 22  1  0  0  0  0
 16 22  4  0  0  0  0
  1 23  1  0  0  0  0
  5 24  1  0  0  0  0
  6 25  1  0  0  0  0
  7 26  1  0  0  0  0
  8 27  1  0  0  0  0
 10 28  1  0  0  0  0
 10 29  1  0  0  0  0
 17 30  1  0  0  0  0
 18 31  1  0  0  0  0
 19 32  1  0  0  0  0
M  END
> <Compound_name>
4k

> <Standard Type>
IC50

> <Standard Relation>
'='

> <Standard Value>
980.0

> <Standard Units>
nM

> <Outcome>
Active

> <InChIKey>
UFOWXDUBQLPEOX-UHFFFAOYSA-N

> <Molecule ChEMBL ID>
CHEMBL365134

$$$$

  Mrv1817 04132013512D          

 31 33  0  0  0  0            999 V2000
    0.7145   -1.2375    0.0000 C   0  0  0  0  0  0  0  0  0  0  0  0
    1.3819   -1.7224    0.0000 C   0  0  0  0  0  0  0  0  0  0  0  0
    1.1270   -2.5070    0.0000 C   0  0  0  0  0  0  0  0  0  0  0  0
    0.3020   -2.5070    0.0000 O   0  0  0  0  0  0  0  0  0  0  0  0
    0.0470   -1.7224    0.0000 C   0  0  0  0  0  0  0  0  0  0  0  0
   -0.7376   -1.4675    0.0000 C   0  0  0  0  0  0  0  0  0  0  0  0
   -1.3507   -2.0195    0.0000 O   0  0  0  0  0  0  0  0  0  0  0  0
   -0.9091   -0.6605    0.0000 O   0  0  0  0  0  0  0  0  0  0  0  0
   -1.6937   -0.4056    0.0000 C   0  0  0  0  0  0  0  0  0  0  0  0
   -2.3068   -0.9576    0.0000 C   0  0  0  0  0  0  0  0  0  0  0  0
   -3.0915   -0.7027    0.0000 N   0  0  0  0  0  0  0  0  0  0  0  0
   -3.2630    0.1043    0.0000 C   0  0  0  0  0  0  0  0  0  0  0  0
   -2.6499    0.6563    0.0000 C   0  0  0  0  0  0  0  0  0  0  0  0
   -2.8214    1.4633    0.0000 Cl  0  0  0  0  0  0  0  0  0  0  0  0
   -1.8653    0.4014    0.0000 C   0  0  0  0  0  0  0  0  0  0  0  0
    1.6119   -3.1745    0.0000 C   0  0  0  0  0  0  0  0  0  0  0  0
    2.4324   -3.0882    0.0000 C   0  0  0  0  0  0  0  0  0  0  0  0
    2.9173   -3.7557    0.0000 C   0  0  0  0  0  0  0  0  0  0  0  0
    2.5817   -4.5094    0.0000 C   0  0  0  0  0  0  0  0  0  0  0  0
    3.0667   -5.1768    0.0000 Cl  0  0  0  0  0  0  0  0  0  0  0  0
    1.7613   -4.5956    0.0000 C   0  0  0  0  0  0  0  0  0  0  0  0
    1.2763   -3.9282    0.0000 C   0  0  0  0  0  0  0  0  0  0  0  0
    0.7145   -0.4125    0.0000 H   0  0  0  0  0  0  0  0  0  0  0  0
    2.1665   -1.4675    0.0000 H   0  0  0  0  0  0  0  0  0  0  0  0
   -2.1353   -1.7646    0.0000 H   0  0  0  0  0  0  0  0  0  0  0  0
   -4.0476    0.3592    0.0000 H   0  0  0  0  0  0  0  0  0  0  0  0
   -1.2522    0.9534    0.0000 H   0  0  0  0  0  0  0  0  0  0  0  0
    2.7679   -2.3346    0.0000 H   0  0  0  0  0  0  0  0  0  0  0  0
    3.7378   -3.6695    0.0000 H   0  0  0  0  0  0  0  0  0  0  0  0
    1.4257   -5.3493    0.0000 H   0  0  0  0  0  0  0  0  0  0  0  0
    0.4559   -4.0144    0.0000 H   0  0  0  0  0  0  0  0  0  0  0  0
  1  2  4  0  0  0  0
  2  3  4  0  0  0  0
  3  4  4  0  0  0  0
  4  5  4  0  0  0  0
  1  5  4  0  0  0  0
  5  6  1  0  0  0  0
  6  7  2  0  0  0  0
  6  8  1  0  0  0  0
  8  9  1  0  0  0  0
  9 10  4  0  0  0  0
 10 11  4  0  0  0  0
 11 12  4  0  0  0  0
 12 13  4  0  0  0  0
 13 14  1  0  0  0  0
 13 15  4  0  0  0  0
  9 15  4  0  0  0  0
  3 16  1  0  0  0  0
 16 17  4  0  0  0  0
 17 18  4  0  0  0  0
 18 19  4  0  0  0  0
 19 20  1  0  0  0  0
 19 21  4  0  0  0  0
 21 22  4  0  0  0  0
 16 22  4  0  0  0  0
  1 23  1  0  0  0  0
  2 24  1  0  0  0  0
 10 25  1  0  0  0  0
 12 26  1  0  0  0  0
 15 27  1  0  0  0  0
 17 28  1  0  0  0  0
 18 29  1  0  0  0  0
 21 30  1  0  0  0  0
 22 31  1  0  0  0  0
M  END
> <Compound_name>
52

> <Standard Type>
IC50

> <Standard Relation>
'='

> <Standard Value>
63.0

> <Standard Units>
nM

> <Outcome>
Active

> <InChIKey>
UICFGOSRHHZBHZ-UHFFFAOYSA-N

> <Molecule ChEMBL ID>
CHEMBL222769

$$$$

  Mrv1817 04132013512D          

 28 29  0  0  0  0            999 V2000
    1.4289   -2.4750    0.0000 C   0  0  0  0  0  0  0  0  0  0  0  0
    2.1434   -2.8875    0.0000 C   0  0  0  0  0  0  0  0  0  0  0  0
    2.1434   -3.7125    0.0000 C   0  0  0  0  0  0  0  0  0  0  0  0
    2.8579   -4.1250    0.0000 O   0  0  0  0  0  0  0  0  0  0  0  0
    3.5724   -3.7125    0.0000 C   0  0  0  0  0  0  0  0  0  0  0  0
    1.4289   -4.1250    0.0000 C   0  0  0  0  0  0  0  0  0  0  0  0
    0.7145   -3.7125    0.0000 C   0  0  0  0  0  0  0  0  0  0  0  0
    0.7145   -2.8875    0.0000 C   0  0  0  0  0  0  0  0  0  0  0  0
    0.0000   -4.1250    0.0000 C   0  0  0  0  0  0  0  0  0  0  0  0
   -0.7145   -3.7125    0.0000 O   0  0  0  0  0  0  0  0  0  0  0  0
    0.0000   -4.9500    0.0000 O   0  0  0  0  0  0  0  0  0  0  0  0
   -0.7145   -5.3625    0.0000 C   0  0  0  0  0  0  0  0  0  0  0  0
   -0.7145   -6.1875    0.0000 C   0  0  0  0  0  0  0  0  0  0  0  0
   -1.4289   -6.6000    0.0000 N   0  0  0  0  0  0  0  0  0  0  0  0
   -2.1434   -6.1875    0.0000 C   0  0  0  0  0  0  0  0  0  0  0  0
   -2.1434   -5.3625    0.0000 C   0  0  0  0  0  0  0  0  0  0  0  0
   -2.8579   -4.9500    0.0000 Cl  0  0  0  0  0  0  0  0  0  0  0  0
   -1.4289   -4.9500    0.0000 C   0  0  0  0  0  0  0  0  0  0  0  0
    1.4289   -1.6500    0.0000 H   0  0  0  0  0  0  0  0  0  0  0  0
    2.8579   -2.4750    0.0000 H   0  0  0  0  0  0  0  0  0  0  0  0
    3.9849   -4.4270    0.0000 H   0  0  0  0  0  0  0  0  0  0  0  0
    4.2868   -3.3000    0.0000 H   0  0  0  0  0  0  0  0  0  0  0  0
    3.1599   -2.9980    0.0000 H   0  0  0  0  0  0  0  0  0  0  0  0
    1.4289   -4.9500    0.0000 H   0  0  0  0  0  0  0  0  0  0  0  0
    0.0000   -2.4750    0.0000 H   0  0  0  0  0  0  0  0  0  0  0  0
    0.0000   -6.6000    0.0000 H   0  0  0  0  0  0  0  0  0  0  0  0
   -2.8579   -6.6000    0.0000 H   0  0  0  0  0  0  0  0  0  0  0  0
   -1.4289   -4.1250    0.0000 H   0  0  0  0  0  0  0  0  0  0  0  0
  1  2  4  0  0  0  0
  2  3  4  0  0  0  0
  3  4  1  0  0  0  0
  4  5  1  0  0  0  0
  3  6  4  0  0  0  0
  6  7  4  0  0  0  0
  7  8  4  0  0  0  0
  1  8  4  0  0  0  0
  7  9  1  0  0  0  0
  9 10  2  0  0  0  0
  9 11  1  0  0  0  0
 11 12  1  0  0  0  0
 12 13  4  0  0  0  0
 13 14  4  0  0  0  0
 14 15  4  0  0  0  0
 15 16  4  0  0  0  0
 16 17  1  0  0  0  0
 16 18  4  0  0  0  0
 12 18  4  0  0  0  0
  1 19  1  0  0  0  0
  2 20  1  0  0  0  0
  5 21  1  0  0  0  0
  5 22  1  0  0  0  0
  5 23  1  0  0  0  0
  6 24  1  0  0  0  0
  8 25  1  0  0  0  0
 13 26  1  0  0  0  0
 15 27  1  0  0  0  0
 18 28  1  0  0  0  0
M  END
> <Compound_name>
51

> <Standard Type>
IC50

> <Standard Relation>
'='

> <Standard Value>
340.0

> <Standard Units>
nM

> <Outcome>
Active

> <InChIKey>
UIXQHURPUVBNCZ-UHFFFAOYSA-N

> <Molecule ChEMBL ID>
CHEMBL222735

$$$$

  Mrv1817 04132013512D          

 36 39  0  0  0  0            999 V2000
   -0.1710   -0.6975    0.0000 C   0  0  0  0  0  0  0  0  0  0  0  0
   -0.5835    0.0170    0.0000 C   0  0  0  0  0  0  0  0  0  0  0  0
   -1.4085    0.0170    0.0000 C   0  0  0  0  0  0  0  0  0  0  0  0
   -1.8210    0.7314    0.0000 N   0  0  0  0  0  0  0  0  0  0  0  0
   -2.6414    0.8177    0.0000 C   0  0  0  0  0  0  0  0  0  0  0  0
   -3.1935    0.2046    0.0000 O   0  0  0  0  0  0  0  0  0  0  0  0
   -2.8130    1.6246    0.0000 C   0  0  0  0  0  0  0  0  0  0  0  0
   -3.5666    1.9602    0.0000 O   0  0  0  0  0  0  0  0  0  0  0  0
   -2.0985    2.0371    0.0000 C   0  0  0  0  0  0  0  0  0  0  0  0
   -1.9270    2.8441    0.0000 C   0  0  0  0  0  0  0  0  0  0  0  0
   -1.1423    3.0991    0.0000 C   0  0  0  0  0  0  0  0  0  0  0  0
   -0.9708    3.9060    0.0000 I   0  0  0  0  0  0  0  0  0  0  0  0
   -0.5293    2.5470    0.0000 C   0  0  0  0  0  0  0  0  0  0  0  0
   -0.7008    1.7400    0.0000 C   0  0  0  0  0  0  0  0  0  0  0  0
   -1.4854    1.4851    0.0000 C   0  0  0  0  0  0  0  0  0  0  0  0
    0.6540   -0.6975    0.0000 C   0  0  0  0  0  0  0  0  0  0  0  0
    1.1390   -0.0301    0.0000 S   0  0  0  0  0  0  0  0  0  0  0  0
    1.9236   -0.2850    0.0000 C   0  0  0  0  0  0  0  0  0  0  0  0
    2.6381    0.1275    0.0000 C   0  0  0  0  0  0  0  0  0  0  0  0
    3.3525   -0.2850    0.0000 C   0  0  0  0  0  0  0  0  0  0  0  0
    3.3525   -1.1100    0.0000 C   0  0  0  0  0  0  0  0  0  0  0  0
    2.6381   -1.5225    0.0000 C   0  0  0  0  0  0  0  0  0  0  0  0
    1.9236   -1.1100    0.0000 C   0  0  0  0  0  0  0  0  0  0  0  0
    1.1390   -1.3649    0.0000 C   0  0  0  0  0  0  0  0  0  0  0  0
   -0.5835   -1.4120    0.0000 H   0  0  0  0  0  0  0  0  0  0  0  0
   -0.1710    0.7314    0.0000 H   0  0  0  0  0  0  0  0  0  0  0  0
   -2.0977   -0.4364    0.0000 H   0  0  0  0  0  0  0  0  0  0  0  0
   -1.4564   -0.8066    0.0000 H   0  0  0  0  0  0  0  0  0  0  0  0
   -2.5401    3.3961    0.0000 H   0  0  0  0  0  0  0  0  0  0  0  0
    0.2554    2.8020    0.0000 H   0  0  0  0  0  0  0  0  0  0  0  0
   -0.0877    1.1880    0.0000 H   0  0  0  0  0  0  0  0  0  0  0  0
    2.6381    0.9525    0.0000 H   0  0  0  0  0  0  0  0  0  0  0  0
    4.0670    0.1275    0.0000 H   0  0  0  0  0  0  0  0  0  0  0  0
    4.0670   -1.5225    0.0000 H   0  0  0  0  0  0  0  0  0  0  0  0
    2.6381   -2.3475    0.0000 H   0  0  0  0  0  0  0  0  0  0  0  0
    0.8840   -2.1496    0.0000 H   0  0  0  0  0  0  0  0  0  0  0  0
  1  2  2  0  0  0  0
  2  3  1  0  0  0  0
  3  4  1  0  0  0  0
  4  5  1  0  0  0  0
  5  6  2  0  0  0  0
  5  7  1  0  0  0  0
  7  8  2  0  0  0  0
  7  9  1  0  0  0  0
  9 10  4  0  0  0  0
 10 11  4  0  0  0  0
 11 12  1  0  0  0  0
 11 13  4  0  0  0  0
 13 14  4  0  0  0  0
 14 15  4  0  0  0  0
  4 15  1  0  0  0  0
  9 15  4  0  0  0  0
  1 16  1  4  0  0  0
 16 17  4  0  0  0  0
 17 18  4  0  0  0  0
 18 19  4  0  0  0  0
 19 20  4  0  0  0  0
 20 21  4  0  0  0  0
 21 22  4  0  0  0  0
 22 23  4  0  0  0  0
 18 23  4  0  0  0  0
 23 24  4  0  0  0  0
 16 24  4  0  0  0  0
  1 25  1  0  0  0  0
  2 26  1  0  0  0  0
  3 27  1  0  0  0  0
  3 28  1  0  0  0  0
 10 29  1  0  0  0  0
 13 30  1  0  0  0  0
 14 31  1  0  0  0  0
 19 32  1  0  0  0  0
 20 33  1  0  0  0  0
 21 34  1  0  0  0  0
 22 35  1  0  0  0  0
 24 36  1  0  0  0  0
M  END
> <Compound_name>
4r

> <Standard Type>
IC50

> <Standard Relation>
'='

> <Standard Value>
23500.0

> <Standard Units>
nM

> <Outcome>
Inactive

> <InChIKey>
ULTYNOLOPCCXGD-UHFFFAOYSA-N

> <Molecule ChEMBL ID>
CHEMBL188983

$$$$

  Mrv1817 04132013512D          

 41 42  0  0  0  0            999 V2000
   -3.5720   -2.0623    0.0000 N   0  0  0  0  0  0  0  0  0  0  0  0
   -2.8575   -2.4748    0.0000 C   0  0  0  0  0  0  0  0  0  0  0  0
   -2.1430   -2.0623    0.0000 N   0  0  0  0  0  0  0  0  0  0  0  0
   -1.4286   -2.4748    0.0000 C   0  0  0  0  0  0  0  0  0  0  0  0
   -0.7141   -2.0623    0.0000 S   0  0  0  0  0  0  0  0  0  0  0  0
    0.0004   -2.4748    0.0000 C   0  0  0  0  0  0  0  0  0  0  0  0
    0.7148   -2.0623    0.0000 C   0  0  0  0  0  0  0  0  0  0  0  0
    0.7148   -1.2373    0.0000 O   0  0  0  0  0  0  0  0  0  0  0  0
    1.4293   -2.4748    0.0000 N   0  0  0  0  0  0  0  0  0  0  0  0
    2.1438   -2.0623    0.0000 C   0  0  0  0  0  0  0  0  0  0  0  0
    2.1438   -1.2373    0.0000 C   0  0  0  0  0  0  0  0  0  0  0  0
    2.8583   -0.8248    0.0000 C   0  0  0  0  0  0  0  0  0  0  0  0
    3.5727   -1.2373    0.0000 C   0  0  0  0  0  0  0  0  0  0  0  0
    3.5727   -2.0623    0.0000 C   0  0  0  0  0  0  0  0  0  0  0  0
    2.8583   -2.4748    0.0000 C   0  0  0  0  0  0  0  0  0  0  0  0
    4.2872   -0.8248    0.0000 N   0  0  0  0  0  0  0  0  0  0  0  0
    5.0017   -1.2373    0.0000 O   0  0  0  0  0  0  0  0  0  0  0  0
    4.2872    0.0002    0.0000 O   0  0  0  0  0  0  0  0  0  0  0  0
   -1.4286   -3.2998    0.0000 N   0  0  0  0  0  0  0  0  0  0  0  0
   -2.1430   -3.7123    0.0000 C   0  0  0  0  0  0  0  0  0  0  0  0
   -2.8575   -3.2998    0.0000 C   0  0  0  0  0  0  0  0  0  0  0  0
   -3.5720   -3.7123    0.0000 C   0  0  0  0  0  0  0  0  0  0  0  0
   -4.2865   -3.2998    0.0000 O   0  0  0  0  0  0  0  0  0  0  0  0
   -3.5720   -4.5373    0.0000 O   0  0  0  0  0  0  0  0  0  0  0  0
   -4.2865   -4.9498    0.0000 C   0  0  0  0  0  0  0  0  0  0  0  0
   -4.2865   -5.7748    0.0000 C   0  0  0  0  0  0  0  0  0  0  0  0
   -3.5720   -1.2373    0.0000 H   0  0  0  0  0  0  0  0  0  0  0  0
   -4.2865   -2.4748    0.0000 H   0  0  0  0  0  0  0  0  0  0  0  0
   -0.3699   -3.2120    0.0000 H   0  0  0  0  0  0  0  0  0  0  0  0
    0.3706   -3.2120    0.0000 H   0  0  0  0  0  0  0  0  0  0  0  0
    1.4293   -3.2998    0.0000 H   0  0  0  0  0  0  0  0  0  0  0  0
    1.4293   -0.8248    0.0000 H   0  0  0  0  0  0  0  0  0  0  0  0
    2.8583    0.0002    0.0000 H   0  0  0  0  0  0  0  0  0  0  0  0
    4.2872   -2.4748    0.0000 H   0  0  0  0  0  0  0  0  0  0  0  0
    2.8583   -3.2998    0.0000 H   0  0  0  0  0  0  0  0  0  0  0  0
   -2.1430   -4.5373    0.0000 H   0  0  0  0  0  0  0  0  0  0  0  0
   -4.7398   -4.2605    0.0000 H   0  0  0  0  0  0  0  0  0  0  0  0
   -5.1101   -4.9018    0.0000 H   0  0  0  0  0  0  0  0  0  0  0  0
   -5.1115   -5.7748    0.0000 H   0  0  0  0  0  0  0  0  0  0  0  0
   -4.2865   -6.5998    0.0000 H   0  0  0  0  0  0  0  0  0  0  0  0
   -3.4615   -5.7748    0.0000 H   0  0  0  0  0  0  0  0  0  0  0  0
  1  2  1  0  0  0  0
  2  3  4  0  0  0  0
  3  4  4  0  0  0  0
  4  5  1  0  0  0  0
  5  6  1  0  0  0  0
  6  7  1  0  0  0  0
  7  8  2  0  0  0  0
  7  9  1  0  0  0  0
  9 10  1  0  0  0  0
 10 11  4  0  0  0  0
 11 12  4  0  0  0  0
 12 13  4  0  0  0  0
 13 14  4  0  0  0  0
 14 15  4  0  0  0  0
 10 15  4  0  0  0  0
 13 16  1  0  0  0  0
 16 17  2  0  0  0  0
 16 18  2  0  0  0  0
  4 19  4  0  0  0  0
 19 20  4  0  0  0  0
 20 21  4  0  0  0  0
  2 21  4  0  0  0  0
 21 22  1  0  0  0  0
 22 23  2  0  0  0  0
 22 24  1  0  0  0  0
 24 25  1  0  0  0  0
 25 26  1  0  0  0  0
  1 27  1  0  0  0  0
  1 28  1  0  0  0  0
  6 29  1  0  0  0  0
  6 30  1  0  0  0  0
  9 31  1  0  0  0  0
 11 32  1  0  0  0  0
 12 33  1  0  0  0  0
 14 34  1  0  0  0  0
 15 35  1  0  0  0  0
 20 36  1  0  0  0  0
 25 37  1  0  0  0  0
 25 38  1  0  0  0  0
 26 39  1  0  0  0  0
 26 40  1  0  0  0  0
 26 41  1  0  0  0  0
M  END
> <Compound_name>
21

> <Standard Type>
IC50

> <Standard Relation>
'='

> <Standard Value>
1.990535977767485E12

> <Standard Units>
nM

> <Outcome>
Inactive

> <InChIKey>
UOLRFSMMZCPIDL-UHFFFAOYSA-N

> <Molecule ChEMBL ID>
CHEMBL207458

$$$$

  Mrv1817 04132013512D          

 29 30  0  0  0  0            999 V2000
    4.0668    3.1729    0.0000 N   0  0  0  0  0  0  0  0  0  0  0  0
    4.0668    2.3479    0.0000 C   0  0  0  0  0  0  0  0  0  0  0  0
    4.7812    1.9354    0.0000 O   0  0  0  0  0  0  0  0  0  0  0  0
    3.3523    1.9354    0.0000 C   0  0  0  0  0  0  0  0  0  0  0  0
    3.3523    1.1104    0.0000 C   0  0  0  0  0  0  0  0  0  0  0  0
    2.6378    0.6979    0.0000 C   0  0  0  0  0  0  0  0  0  0  0  0
    1.9233    1.1104    0.0000 C   0  0  0  0  0  0  0  0  0  0  0  0
    1.1387    0.8555    0.0000 N   0  0  0  0  0  0  0  0  0  0  0  0
    0.6538    1.5229    0.0000 C   0  0  0  0  0  0  0  0  0  0  0  0
   -0.1712    1.5229    0.0000 O   0  0  0  0  0  0  0  0  0  0  0  0
    1.1387    2.1904    0.0000 C   0  0  0  0  0  0  0  0  0  0  0  0
    0.8838    2.9750    0.0000 O   0  0  0  0  0  0  0  0  0  0  0  0
    1.9233    1.9354    0.0000 C   0  0  0  0  0  0  0  0  0  0  0  0
    2.6378    2.3479    0.0000 C   0  0  0  0  0  0  0  0  0  0  0  0
    0.8838    0.0709    0.0000 C   0  0  0  0  0  0  0  0  0  0  0  0
    0.0768   -0.1007    0.0000 C   0  0  0  0  0  0  0  0  0  0  0  0
   -0.1781   -0.8853    0.0000 C   0  0  0  0  0  0  0  0  0  0  0  0
    4.7812    3.5854    0.0000 H   0  0  0  0  0  0  0  0  0  0  0  0
    3.3523    3.5854    0.0000 H   0  0  0  0  0  0  0  0  0  0  0  0
    4.0668    0.6979    0.0000 H   0  0  0  0  0  0  0  0  0  0  0  0
    2.6378   -0.1271    0.0000 H   0  0  0  0  0  0  0  0  0  0  0  0
    2.6378    3.1729    0.0000 H   0  0  0  0  0  0  0  0  0  0  0  0
    1.1019   -0.7248    0.0000 H   0  0  0  0  0  0  0  0  0  0  0  0
    1.6523   -0.2293    0.0000 H   0  0  0  0  0  0  0  0  0  0  0  0
   -0.1413    0.6950    0.0000 H   0  0  0  0  0  0  0  0  0  0  0  0
   -0.6917    0.1995    0.0000 H   0  0  0  0  0  0  0  0  0  0  0  0
   -0.9627   -0.6304    0.0000 H   0  0  0  0  0  0  0  0  0  0  0  0
   -0.4331   -1.6699    0.0000 H   0  0  0  0  0  0  0  0  0  0  0  0
    0.6065   -1.1402    0.0000 H   0  0  0  0  0  0  0  0  0  0  0  0
  1  2  1  0  0  0  0
  2  3  2  0  0  0  0
  2  4  1  0  0  0  0
  4  5  4  0  0  0  0
  5  6  4  0  0  0  0
  6  7  4  0  0  0  0
  7  8  1  0  0  0  0
  8  9  1  0  0  0  0
  9 10  2  0  0  0  0
  9 11  1  0  0  0  0
 11 12  2  0  0  0  0
 11 13  1  0  0  0  0
  7 13  4  0  0  0  0
 13 14  4  0  0  0  0
  4 14  4  0  0  0  0
  8 15  1  0  0  0  0
 15 16  1  0  0  0  0
 16 17  1  0  0  0  0
  1 18  1  0  0  0  0
  1 19  1  0  0  0  0
  5 20  1  0  0  0  0
  6 21  1  0  0  0  0
 14 22  1  0  0  0  0
 15 23  1  0  0  0  0
 15 24  1  0  0  0  0
 16 25  1  0  0  0  0
 16 26  1  0  0  0  0
 17 27  1  0  0  0  0
 17 28  1  0  0  0  0
 17 29  1  0  0  0  0
M  END
> <Compound_name>
5b

> <Standard Type>
Ki

> <Standard Relation>
'='

> <Standard Value>
25039.62

> <Standard Units>
nM

> <Outcome>
Inactive

> <InChIKey>
UPFRLUKDHMINPH-UHFFFAOYSA-N

> <Molecule ChEMBL ID>
CHEMBL210525

$$$$

  Mrv1817 04132013512D          

 44 47  0  0  0  0            999 V2000
   -3.4657   -2.9487    0.0000 N   0  0  0  0  0  0  0  0  0  0  0  0
   -2.7512   -2.5362    0.0000 C   0  0  0  0  0  0  0  0  0  0  0  0
   -2.7512   -1.7112    0.0000 O   0  0  0  0  0  0  0  0  0  0  0  0
   -2.0367   -2.9487    0.0000 C   0  0  0  0  0  0  0  0  0  0  0  0
   -1.3222   -2.5362    0.0000 S   0  0  0  0  0  0  0  0  0  0  0  0
   -0.6078   -2.9487    0.0000 C   0  0  0  0  0  0  0  0  0  0  0  0
    0.1067   -2.5362    0.0000 N   0  0  0  0  0  0  0  0  0  0  0  0
    0.8212   -2.9487    0.0000 C   0  0  0  0  0  0  0  0  0  0  0  0
    0.8212   -3.7737    0.0000 C   0  0  0  0  0  0  0  0  0  0  0  0
    0.1067   -4.1862    0.0000 C   0  0  0  0  0  0  0  0  0  0  0  0
   -0.6078   -3.7737    0.0000 N   0  0  0  0  0  0  0  0  0  0  0  0
    0.1067   -5.0112    0.0000 C   0  0  0  0  0  0  0  0  0  0  0  0
    0.7741   -5.4961    0.0000 O   0  0  0  0  0  0  0  0  0  0  0  0
    0.5192   -6.2808    0.0000 N   0  0  0  0  0  0  0  0  0  0  0  0
   -0.3058   -6.2808    0.0000 C   0  0  0  0  0  0  0  0  0  0  0  0
   -0.5607   -5.4961    0.0000 C   0  0  0  0  0  0  0  0  0  0  0  0
   -0.7907   -6.9482    0.0000 C   0  0  0  0  0  0  0  0  0  0  0  0
   -0.4552   -7.7019    0.0000 C   0  0  0  0  0  0  0  0  0  0  0  0
   -0.9401   -8.3693    0.0000 C   0  0  0  0  0  0  0  0  0  0  0  0
   -1.7606   -8.2831    0.0000 C   0  0  0  0  0  0  0  0  0  0  0  0
   -2.0961   -7.5294    0.0000 C   0  0  0  0  0  0  0  0  0  0  0  0
   -1.6112   -6.8620    0.0000 C   0  0  0  0  0  0  0  0  0  0  0  0
   -1.9468   -6.1083    0.0000 Cl  0  0  0  0  0  0  0  0  0  0  0  0
   -4.1801   -2.5362    0.0000 C   0  0  0  0  0  0  0  0  0  0  0  0
   -4.8946   -2.9487    0.0000 C   0  0  0  0  0  0  0  0  0  0  0  0
   -5.6091   -2.5362    0.0000 C   0  0  0  0  0  0  0  0  0  0  0  0
   -5.6091   -1.7112    0.0000 C   0  0  0  0  0  0  0  0  0  0  0  0
   -6.3235   -1.2987    0.0000 Cl  0  0  0  0  0  0  0  0  0  0  0  0
   -4.8946   -1.2987    0.0000 C   0  0  0  0  0  0  0  0  0  0  0  0
   -4.1801   -1.7112    0.0000 C   0  0  0  0  0  0  0  0  0  0  0  0
   -3.4657   -3.7737    0.0000 H   0  0  0  0  0  0  0  0  0  0  0  0
   -2.4070   -3.6860    0.0000 H   0  0  0  0  0  0  0  0  0  0  0  0
   -1.6664   -3.6860    0.0000 H   0  0  0  0  0  0  0  0  0  0  0  0
    1.5356   -2.5362    0.0000 H   0  0  0  0  0  0  0  0  0  0  0  0
    1.5356   -4.1862    0.0000 H   0  0  0  0  0  0  0  0  0  0  0  0
   -1.3454   -5.2412    0.0000 H   0  0  0  0  0  0  0  0  0  0  0  0
    0.3653   -7.7881    0.0000 H   0  0  0  0  0  0  0  0  0  0  0  0
   -0.6045   -9.1230    0.0000 H   0  0  0  0  0  0  0  0  0  0  0  0
   -2.2455   -8.9505    0.0000 H   0  0  0  0  0  0  0  0  0  0  0  0
   -2.9166   -7.4432    0.0000 H   0  0  0  0  0  0  0  0  0  0  0  0
   -4.8946   -3.7737    0.0000 H   0  0  0  0  0  0  0  0  0  0  0  0
   -6.3235   -2.9487    0.0000 H   0  0  0  0  0  0  0  0  0  0  0  0
   -4.8946   -0.4737    0.0000 H   0  0  0  0  0  0  0  0  0  0  0  0
   -3.4657   -1.2987    0.0000 H   0  0  0  0  0  0  0  0  0  0  0  0
  1  2  1  0  0  0  0
  2  3  2  0  0  0  0
  2  4  1  0  0  0  0
  4  5  1  0  0  0  0
  5  6  1  0  0  0  0
  6  7  4  0  0  0  0
  7  8  4  0  0  0  0
  8  9  4  0  0  0  0
  9 10  4  0  0  0  0
 10 11  4  0  0  0  0
  6 11  4  0  0  0  0
 10 12  1  0  0  0  0
 12 13  4  0  0  0  0
 13 14  4  0  0  0  0
 14 15  4  0  0  0  0
 15 16  4  0  0  0  0
 12 16  4  0  0  0  0
 15 17  1  0  0  0  0
 17 18  4  0  0  0  0
 18 19  4  0  0  0  0
 19 20  4  0  0  0  0
 20 21  4  0  0  0  0
 21 22  4  0  0  0  0
 17 22  4  0  0  0  0
 22 23  1  0  0  0  0
  1 24  1  0  0  0  0
 24 25  4  0  0  0  0
 25 26  4  0  0  0  0
 26 27  4  0  0  0  0
 27 28  1  0  0  0  0
 27 29  4  0  0  0  0
 29 30  4  0  0  0  0
 24 30  4  0  0  0  0
  1 31  1  0  0  0  0
  4 32  1  0  0  0  0
  4 33  1  0  0  0  0
  8 34  1  0  0  0  0
  9 35  1  0  0  0  0
 16 36  1  0  0  0  0
 18 37  1  0  0  0  0
 19 38  1  0  0  0  0
 20 39  1  0  0  0  0
 21 40  1  0  0  0  0
 25 41  1  0  0  0  0
 26 42  1  0  0  0  0
 29 43  1  0  0  0  0
 30 44  1  0  0  0  0
M  END
> <Compound_name>
8

> <Standard Type>
IC50

> <Standard Relation>
'='

> <Standard Value>
3.303467240787985E13

> <Standard Units>
nM

> <Outcome>
Inactive

> <InChIKey>
UQVHELVNDYDRGX-UHFFFAOYSA-N

> <Molecule ChEMBL ID>
CHEMBL209667

$$$$

  Mrv1817 04132013512D          

 57 58  0  0  0  0            999 V2000
    0.7147   -1.2370    0.0000 N   0  0  0  0  0  0  0  0  0  0  0  0
    0.0003   -0.8245    0.0000 C   0  0  0  0  0  0  0  0  0  0  0  0
    0.0003    0.0005    0.0000 C   0  0  0  0  0  0  0  0  0  0  0  0
    0.7147    0.4130    0.0000 C   0  0  0  0  0  0  0  0  0  0  0  0
    1.4292    0.8255    0.0000 N   0  0  0  0  0  0  0  0  0  0  0  0
   -0.7142    0.4130    0.0000 C   0  0  0  0  0  0  0  0  0  0  0  0
   -1.4287    0.0005    0.0000 O   0  0  0  0  0  0  0  0  0  0  0  0
   -0.7142    1.2380    0.0000 O   0  0  0  0  0  0  0  0  0  0  0  0
   -1.4287    1.6505    0.0000 C   0  0  0  0  0  0  0  0  0  0  0  0
   -1.4287    2.4755    0.0000 C   0  0  0  0  0  0  0  0  0  0  0  0
    0.7147   -2.0620    0.0000 C   0  0  0  0  0  0  0  0  0  0  0  0
    1.4292   -2.4745    0.0000 C   0  0  0  0  0  0  0  0  0  0  0  0
    1.4292   -3.2995    0.0000 C   0  0  0  0  0  0  0  0  0  0  0  0
    0.7147   -3.7120    0.0000 C   0  0  0  0  0  0  0  0  0  0  0  0
    0.0003   -3.2995    0.0000 C   0  0  0  0  0  0  0  0  0  0  0  0
    0.0003   -2.4745    0.0000 C   0  0  0  0  0  0  0  0  0  0  0  0
    0.7147   -4.5370    0.0000 S   0  0  0  0  0  0  0  0  0  0  0  0
   -0.1103   -4.5370    0.0000 O   0  0  0  0  0  0  0  0  0  0  0  0
    1.5397   -4.5370    0.0000 O   0  0  0  0  0  0  0  0  0  0  0  0
    0.7147   -5.3620    0.0000 C   0  0  0  0  0  0  0  0  0  0  0  0
    1.4292   -5.7745    0.0000 C   0  0  0  0  0  0  0  0  0  0  0  0
    1.4292   -6.5995    0.0000 C   0  0  0  0  0  0  0  0  0  0  0  0
    0.7147   -7.0120    0.0000 C   0  0  0  0  0  0  0  0  0  0  0  0
    0.7147   -7.8370    0.0000 N   0  0  0  0  0  0  0  0  0  0  0  0
    1.4292   -8.2495    0.0000 C   0  0  0  0  0  0  0  0  0  0  0  0
    1.4292   -9.0745    0.0000 C   0  0  0  0  0  0  0  0  0  0  0  0
    0.7147   -9.4870    0.0000 C   0  0  0  0  0  0  0  0  0  0  0  0
    0.0003   -9.8995    0.0000 N   0  0  0  0  0  0  0  0  0  0  0  0
    2.1437   -9.4870    0.0000 C   0  0  0  0  0  0  0  0  0  0  0  0
    2.1437  -10.3120    0.0000 O   0  0  0  0  0  0  0  0  0  0  0  0
    2.8582   -9.0745    0.0000 O   0  0  0  0  0  0  0  0  0  0  0  0
    3.5726   -9.4870    0.0000 C   0  0  0  0  0  0  0  0  0  0  0  0
    4.2871   -9.0745    0.0000 C   0  0  0  0  0  0  0  0  0  0  0  0
    0.0003   -6.5995    0.0000 C   0  0  0  0  0  0  0  0  0  0  0  0
    0.0003   -5.7745    0.0000 C   0  0  0  0  0  0  0  0  0  0  0  0
    1.4292   -0.8245    0.0000 H   0  0  0  0  0  0  0  0  0  0  0  0
   -0.7142   -1.2370    0.0000 H   0  0  0  0  0  0  0  0  0  0  0  0
   -2.2523    1.6025    0.0000 H   0  0  0  0  0  0  0  0  0  0  0  0
   -1.8820    0.9612    0.0000 H   0  0  0  0  0  0  0  0  0  0  0  0
   -0.6037    2.4755    0.0000 H   0  0  0  0  0  0  0  0  0  0  0  0
   -1.4287    3.3005    0.0000 H   0  0  0  0  0  0  0  0  0  0  0  0
   -2.2537    2.4755    0.0000 H   0  0  0  0  0  0  0  0  0  0  0  0
    2.1437   -2.0620    0.0000 H   0  0  0  0  0  0  0  0  0  0  0  0
    2.1437   -3.7120    0.0000 H   0  0  0  0  0  0  0  0  0  0  0  0
   -0.7142   -3.7120    0.0000 H   0  0  0  0  0  0  0  0  0  0  0  0
   -0.7142   -2.0620    0.0000 H   0  0  0  0  0  0  0  0  0  0  0  0
    2.1437   -5.3620    0.0000 H   0  0  0  0  0  0  0  0  0  0  0  0
    2.1437   -7.0120    0.0000 H   0  0  0  0  0  0  0  0  0  0  0  0
    0.0003   -8.2495    0.0000 H   0  0  0  0  0  0  0  0  0  0  0  0
    2.1437   -7.8370    0.0000 H   0  0  0  0  0  0  0  0  0  0  0  0
    3.2024  -10.2243    0.0000 H   0  0  0  0  0  0  0  0  0  0  0  0
    3.9429  -10.2243    0.0000 H   0  0  0  0  0  0  0  0  0  0  0  0
    4.6996   -9.7890    0.0000 H   0  0  0  0  0  0  0  0  0  0  0  0
    5.0016   -8.6620    0.0000 H   0  0  0  0  0  0  0  0  0  0  0  0
    3.8746   -8.3601    0.0000 H   0  0  0  0  0  0  0  0  0  0  0  0
   -0.7142   -7.0120    0.0000 H   0  0  0  0  0  0  0  0  0  0  0  0
   -0.7142   -5.3620    0.0000 H   0  0  0  0  0  0  0  0  0  0  0  0
  2  1  1  4  0  0  0
  2  3  2  0  0  0  0
  3  4  1  0  0  0  0
  4  5  3  0  0  0  0
  3  6  1  0  0  0  0
  6  7  2  0  0  0  0
  6  8  1  0  0  0  0
  8  9  1  0  0  0  0
  9 10  1  0  0  0  0
  1 11  1  0  0  0  0
 11 12  4  0  0  0  0
 12 13  4  0  0  0  0
 13 14  4  0  0  0  0
 14 15  4  0  0  0  0
 15 16  4  0  0  0  0
 11 16  4  0  0  0  0
 14 17  1  0  0  0  0
 17 18  2  0  0  0  0
 17 19  2  0  0  0  0
 17 20  1  0  0  0  0
 20 21  4  0  0  0  0
 21 22  4  0  0  0  0
 22 23  4  0  0  0  0
 23 24  1  0  0  0  0
 25 24  1  0  0  0  0
 25 26  2  0  0  0  0
 26 27  1  0  0  0  0
 27 28  3  0  0  0  0
 26 29  1  0  0  0  0
 29 30  2  0  0  0  0
 29 31  1  0  0  0  0
 31 32  1  0  0  0  0
 32 33  1  0  0  0  0
 23 34  4  0  0  0  0
 34 35  4  0  0  0  0
 20 35  4  0  0  0  0
  1 36  1  0  0  0  0
  2 37  1  0  0  0  0
  9 38  1  0  0  0  0
  9 39  1  0  0  0  0
 10 40  1  0  0  0  0
 10 41  1  0  0  0  0
 10 42  1  0  0  0  0
 12 43  1  0  0  0  0
 13 44  1  0  0  0  0
 15 45  1  0  0  0  0
 16 46  1  0  0  0  0
 21 47  1  0  0  0  0
 22 48  1  0  0  0  0
 24 49  1  0  0  0  0
 25 50  1  0  0  0  0
 32 51  1  0  0  0  0
 32 52  1  0  0  0  0
 33 53  1  0  0  0  0
 33 54  1  0  0  0  0
 33 55  1  0  0  0  0
 34 56  1  0  0  0  0
 35 57  1  0  0  0  0
M  END
> <Compound_name>
10

> <Standard Type>
IC50

> <Standard Relation>
'='

> <Standard Value>
16000.0

> <Standard Units>
nM

> <Outcome>
Inactive

> <InChIKey>
UTSWQPCQKBMWQD-WIMRMNCLSA-N

> <Molecule ChEMBL ID>
CHEMBL215732

$$$$

  Mrv1817 04132013512D          

 44 46  0  0  0  0            999 V2000
    0.7267   -2.0715    0.0000 N   0  0  0  0  0  0  0  0  0  0  0  0
    1.4412   -1.6590    0.0000 C   0  0  0  0  0  0  0  0  0  0  0  0
    1.4412   -0.8340    0.0000 O   0  0  0  0  0  0  0  0  0  0  0  0
    2.1556   -2.0715    0.0000 C   0  0  0  0  0  0  0  0  0  0  0  0
    2.8701   -1.6590    0.0000 S   0  0  0  0  0  0  0  0  0  0  0  0
    3.5846   -2.0715    0.0000 C   0  0  0  0  0  0  0  0  0  0  0  0
    4.2990   -1.6590    0.0000 N   0  0  0  0  0  0  0  0  0  0  0  0
    5.0135   -2.0715    0.0000 C   0  0  0  0  0  0  0  0  0  0  0  0
    5.0135   -2.8965    0.0000 C   0  0  0  0  0  0  0  0  0  0  0  0
    4.2990   -3.3090    0.0000 C   0  0  0  0  0  0  0  0  0  0  0  0
    3.5846   -2.8965    0.0000 N   0  0  0  0  0  0  0  0  0  0  0  0
    4.2990   -4.1340    0.0000 C   0  0  0  0  0  0  0  0  0  0  0  0
    4.9665   -4.6189    0.0000 S   0  0  0  0  0  0  0  0  0  0  0  0
    4.7115   -5.4035    0.0000 C   0  0  0  0  0  0  0  0  0  0  0  0
    3.8865   -5.4035    0.0000 C   0  0  0  0  0  0  0  0  0  0  0  0
    3.6316   -4.6189    0.0000 C   0  0  0  0  0  0  0  0  0  0  0  0
    0.0122   -1.6590    0.0000 C   0  0  0  0  0  0  0  0  0  0  0  0
   -0.7023   -2.0715    0.0000 C   0  0  0  0  0  0  0  0  0  0  0  0
   -1.4167   -1.6590    0.0000 C   0  0  0  0  0  0  0  0  0  0  0  0
   -1.4167   -0.8340    0.0000 C   0  0  0  0  0  0  0  0  0  0  0  0
   -0.7023   -0.4215    0.0000 C   0  0  0  0  0  0  0  0  0  0  0  0
    0.0122   -0.8340    0.0000 C   0  0  0  0  0  0  0  0  0  0  0  0
   -2.1312   -0.4215    0.0000 C   0  0  0  0  0  0  0  0  0  0  0  0
   -2.8457   -0.8340    0.0000 C   0  0  0  0  0  0  0  0  0  0  0  0
   -2.1312    0.4035    0.0000 C   0  0  0  0  0  0  0  0  0  0  0  0
    0.7267   -2.8965    0.0000 H   0  0  0  0  0  0  0  0  0  0  0  0
    1.7854   -2.8087    0.0000 H   0  0  0  0  0  0  0  0  0  0  0  0
    2.5259   -2.8087    0.0000 H   0  0  0  0  0  0  0  0  0  0  0  0
    5.7280   -1.6590    0.0000 H   0  0  0  0  0  0  0  0  0  0  0  0
    5.7280   -3.3090    0.0000 H   0  0  0  0  0  0  0  0  0  0  0  0
    5.1965   -6.0710    0.0000 H   0  0  0  0  0  0  0  0  0  0  0  0
    3.4016   -6.0710    0.0000 H   0  0  0  0  0  0  0  0  0  0  0  0
    2.8470   -4.3640    0.0000 H   0  0  0  0  0  0  0  0  0  0  0  0
   -0.7023   -2.8965    0.0000 H   0  0  0  0  0  0  0  0  0  0  0  0
   -2.1312   -2.0715    0.0000 H   0  0  0  0  0  0  0  0  0  0  0  0
   -0.7023    0.4035    0.0000 H   0  0  0  0  0  0  0  0  0  0  0  0
    0.7267   -0.4215    0.0000 H   0  0  0  0  0  0  0  0  0  0  0  0
   -2.1312   -1.2465    0.0000 H   0  0  0  0  0  0  0  0  0  0  0  0
   -3.0592   -0.0371    0.0000 H   0  0  0  0  0  0  0  0  0  0  0  0
   -3.6707   -0.8340    0.0000 H   0  0  0  0  0  0  0  0  0  0  0  0
   -3.0592   -1.6309    0.0000 H   0  0  0  0  0  0  0  0  0  0  0  0
   -1.3062    0.4035    0.0000 H   0  0  0  0  0  0  0  0  0  0  0  0
   -2.1312    1.2285    0.0000 H   0  0  0  0  0  0  0  0  0  0  0  0
   -2.9562    0.4035    0.0000 H   0  0  0  0  0  0  0  0  0  0  0  0
  1  2  1  0  0  0  0
  2  3  2  0  0  0  0
  2  4  1  0  0  0  0
  4  5  1  0  0  0  0
  5  6  1  0  0  0  0
  6  7  4  0  0  0  0
  7  8  4  0  0  0  0
  8  9  4  0  0  0  0
  9 10  4  0  0  0  0
 10 11  4  0  0  0  0
  6 11  4  0  0  0  0
 10 12  1  0  0  0  0
 12 13  4  0  0  0  0
 13 14  4  0  0  0  0
 14 15  4  0  0  0  0
 15 16  4  0  0  0  0
 12 16  4  0  0  0  0
  1 17  1  0  0  0  0
 17 18  4  0  0  0  0
 18 19  4  0  0  0  0
 19 20  4  0  0  0  0
 20 21  4  0  0  0  0
 21 22  4  0  0  0  0
 17 22  4  0  0  0  0
 20 23  1  0  0  0  0
 23 24  1  0  0  0  0
 23 25  1  0  0  0  0
  1 26  1  0  0  0  0
  4 27  1  0  0  0  0
  4 28  1  0  0  0  0
  8 29  1  0  0  0  0
  9 30  1  0  0  0  0
 14 31  1  0  0  0  0
 15 32  1  0  0  0  0
 16 33  1  0  0  0  0
 18 34  1  0  0  0  0
 19 35  1  0  0  0  0
 21 36  1  0  0  0  0
 22 37  1  0  0  0  0
 23 38  1  0  0  0  0
 24 39  1  0  0  0  0
 24 40  1  0  0  0  0
 24 41  1  0  0  0  0
 25 42  1  0  0  0  0
 25 43  1  0  0  0  0
 25 44  1  0  0  0  0
M  END
> <Compound_name>
11

> <Standard Type>
IC50

> <Standard Relation>
'='

> <Standard Value>
1.227354459842515E13

> <Standard Units>
nM

> <Outcome>
Inactive

> <InChIKey>
UUBHDKPSKIQBFE-UHFFFAOYSA-N

> <Molecule ChEMBL ID>
CHEMBL210612

$$$$

  Mrv1817 04132013512D          

 19 20  0  0  0  0            999 V2000
    2.3180   -1.9622    0.0000 C   0  0  0  0  0  0  0  0  0  0  0  0
    2.9854   -2.4471    0.0000 N   0  0  0  0  0  0  0  0  0  0  0  0
    2.7305   -3.2318    0.0000 C   0  0  0  0  0  0  0  0  0  0  0  0
    1.9055   -3.2318    0.0000 S   0  0  0  0  0  0  0  0  0  0  0  0
    1.6505   -2.4471    0.0000 C   0  0  0  0  0  0  0  0  0  0  0  0
    3.2154   -3.8992    0.0000 C   0  0  0  0  0  0  0  0  0  0  0  0
    2.8798   -4.6529    0.0000 O   0  0  0  0  0  0  0  0  0  0  0  0
    4.0359   -3.8130    0.0000 C   0  0  0  0  0  0  0  0  0  0  0  0
    4.5208   -4.4804    0.0000 C   0  0  0  0  0  0  0  0  0  0  0  0
    5.3458   -4.4804    0.0000 N   0  0  0  0  0  0  0  0  0  0  0  0
    5.6007   -5.2650    0.0000 C   0  0  0  0  0  0  0  0  0  0  0  0
    4.9333   -5.7499    0.0000 C   0  0  0  0  0  0  0  0  0  0  0  0
    4.2658   -5.2650    0.0000 S   0  0  0  0  0  0  0  0  0  0  0  0
    2.3180   -1.1372    0.0000 H   0  0  0  0  0  0  0  0  0  0  0  0
    0.8659   -2.1922    0.0000 H   0  0  0  0  0  0  0  0  0  0  0  0
    4.6740   -3.2900    0.0000 H   0  0  0  0  0  0  0  0  0  0  0  0
    3.9975   -2.9889    0.0000 H   0  0  0  0  0  0  0  0  0  0  0  0
    6.3853   -5.5200    0.0000 H   0  0  0  0  0  0  0  0  0  0  0  0
    4.9333   -6.5749    0.0000 H   0  0  0  0  0  0  0  0  0  0  0  0
  1  2  4  0  0  0  0
  2  3  4  0  0  0  0
  3  4  4  0  0  0  0
  4  5  4  0  0  0  0
  1  5  4  0  0  0  0
  3  6  1  0  0  0  0
  6  7  2  0  0  0  0
  6  8  1  0  0  0  0
  8  9  1  0  0  0  0
  9 10  4  0  0  0  0
 10 11  4  0  0  0  0
 11 12  4  0  0  0  0
 12 13  4  0  0  0  0
  9 13  4  0  0  0  0
  1 14  1  0  0  0  0
  5 15  1  0  0  0  0
  8 16  1  0  0  0  0
  8 17  1  0  0  0  0
 11 18  1  0  0  0  0
 12 19  1  0  0  0  0
M  END
> <Compound_name>
23

> <Standard Type>
IC50

> <Standard Relation>
'='

> <Standard Value>
40000.0

> <Standard Units>
nM

> <Outcome>
Inactive

> <InChIKey>
VBVUGCQFVIKNDM-UHFFFAOYSA-N

> <Molecule ChEMBL ID>
CHEMBL214372

$$$$

  Mrv1817 04132013512D          

 32 35  0  0  0  0            999 V2000
   -1.5413    1.6789    0.0000 C   0  0  0  0  0  0  0  0  0  0  0  0
   -1.2058    0.9252    0.0000 C   0  0  0  0  0  0  0  0  0  0  0  0
   -1.8189    0.3732    0.0000 S   0  0  0  0  0  0  0  0  0  0  0  0
   -2.5333    0.7857    0.0000 C   0  0  0  0  0  0  0  0  0  0  0  0
   -3.3180    0.5308    0.0000 C   0  0  0  0  0  0  0  0  0  0  0  0
   -3.9311    1.0828    0.0000 C   0  0  0  0  0  0  0  0  0  0  0  0
   -3.7595    1.8898    0.0000 C   0  0  0  0  0  0  0  0  0  0  0  0
   -2.9749    2.1447    0.0000 C   0  0  0  0  0  0  0  0  0  0  0  0
   -2.3618    1.5927    0.0000 C   0  0  0  0  0  0  0  0  0  0  0  0
   -0.3988    0.7537    0.0000 C   0  0  0  0  0  0  0  0  0  0  0  0
   -0.1439   -0.0309    0.0000 N   0  0  0  0  0  0  0  0  0  0  0  0
   -0.6288   -0.6983    0.0000 C   0  0  0  0  0  0  0  0  0  0  0  0
   -1.4538   -0.6983    0.0000 O   0  0  0  0  0  0  0  0  0  0  0  0
   -0.1439   -1.3658    0.0000 C   0  0  0  0  0  0  0  0  0  0  0  0
   -0.3988   -2.1504    0.0000 O   0  0  0  0  0  0  0  0  0  0  0  0
    0.6408   -1.1108    0.0000 C   0  0  0  0  0  0  0  0  0  0  0  0
    0.6408   -0.2858    0.0000 C   0  0  0  0  0  0  0  0  0  0  0  0
    1.3552    0.1267    0.0000 C   0  0  0  0  0  0  0  0  0  0  0  0
    2.0697   -0.2858    0.0000 C   0  0  0  0  0  0  0  0  0  0  0  0
    2.0697   -1.1108    0.0000 C   0  0  0  0  0  0  0  0  0  0  0  0
    1.3552   -1.5233    0.0000 C   0  0  0  0  0  0  0  0  0  0  0  0
    1.3552   -2.3483    0.0000 Cl  0  0  0  0  0  0  0  0  0  0  0  0
   -1.1288    2.3934    0.0000 H   0  0  0  0  0  0  0  0  0  0  0  0
   -3.4895   -0.2762    0.0000 H   0  0  0  0  0  0  0  0  0  0  0  0
   -4.7157    0.8279    0.0000 H   0  0  0  0  0  0  0  0  0  0  0  0
   -4.3726    2.4418    0.0000 H   0  0  0  0  0  0  0  0  0  0  0  0
   -2.8034    2.9517    0.0000 H   0  0  0  0  0  0  0  0  0  0  0  0
    0.3697    1.0538    0.0000 H   0  0  0  0  0  0  0  0  0  0  0  0
   -0.1806    1.5494    0.0000 H   0  0  0  0  0  0  0  0  0  0  0  0
    1.3552    0.9517    0.0000 H   0  0  0  0  0  0  0  0  0  0  0  0
    2.7842    0.1267    0.0000 H   0  0  0  0  0  0  0  0  0  0  0  0
    2.7842   -1.5233    0.0000 H   0  0  0  0  0  0  0  0  0  0  0  0
  1  2  4  0  0  0  0
  2  3  4  0  0  0  0
  3  4  4  0  0  0  0
  4  5  4  0  0  0  0
  5  6  4  0  0  0  0
  6  7  4  0  0  0  0
  7  8  4  0  0  0  0
  8  9  4  0  0  0  0
  1  9  4  0  0  0  0
  4  9  4  0  0  0  0
  2 10  1  0  0  0  0
 10 11  1  0  0  0  0
 11 12  1  0  0  0  0
 12 13  2  0  0  0  0
 12 14  1  0  0  0  0
 14 15  2  0  0  0  0
 14 16  1  0  0  0  0
 16 17  4  0  0  0  0
 11 17  1  0  0  0  0
 17 18  4  0  0  0  0
 18 19  4  0  0  0  0
 19 20  4  0  0  0  0
 20 21  4  0  0  0  0
 16 21  4  0  0  0  0
 21 22  1  0  0  0  0
  1 23  1  0  0  0  0
  5 24  1  0  0  0  0
  6 25  1  0  0  0  0
  7 26  1  0  0  0  0
  8 27  1  0  0  0  0
 10 28  1  0  0  0  0
 10 29  1  0  0  0  0
 18 30  1  0  0  0  0
 19 31  1  0  0  0  0
 20 32  1  0  0  0  0
M  END
> <Compound_name>
4p

> <Standard Type>
IC50

> <Standard Relation>
'='

> <Standard Value>
11200.0

> <Standard Units>
nM

> <Outcome>
Inactive

> <InChIKey>
VCHRPHJPXICPGC-UHFFFAOYSA-N

> <Molecule ChEMBL ID>
CHEMBL365469

$$$$

  Mrv1817 04132013512D          

 33 35  0  0  0  0            999 V2000
    0.7145   -2.8875    0.0000 C   0  0  0  0  0  0  0  0  0  0  0  0
    1.3819   -3.3724    0.0000 C   0  0  0  0  0  0  0  0  0  0  0  0
    1.1270   -4.1570    0.0000 C   0  0  0  0  0  0  0  0  0  0  0  0
    0.3020   -4.1570    0.0000 O   0  0  0  0  0  0  0  0  0  0  0  0
    0.0470   -3.3724    0.0000 C   0  0  0  0  0  0  0  0  0  0  0  0
   -0.7376   -3.1175    0.0000 C   0  0  0  0  0  0  0  0  0  0  0  0
   -1.5222   -2.8625    0.0000 C   0  0  0  0  0  0  0  0  0  0  0  0
   -2.3068   -2.6076    0.0000 C   0  0  0  0  0  0  0  0  0  0  0  0
   -2.9199   -3.1596    0.0000 C   0  0  0  0  0  0  0  0  0  0  0  0
   -3.7045   -2.9047    0.0000 C   0  0  0  0  0  0  0  0  0  0  0  0
   -3.8761   -2.0977    0.0000 C   0  0  0  0  0  0  0  0  0  0  0  0
   -3.2630   -1.5457    0.0000 C   0  0  0  0  0  0  0  0  0  0  0  0
   -2.4783   -1.8006    0.0000 C   0  0  0  0  0  0  0  0  0  0  0  0
    1.6119   -4.8245    0.0000 C   0  0  0  0  0  0  0  0  0  0  0  0
    2.4324   -4.7382    0.0000 O   0  0  0  0  0  0  0  0  0  0  0  0
    1.2763   -5.5781    0.0000 S   0  0  0  0  0  0  0  0  0  0  0  0
    1.7613   -6.2456    0.0000 C   0  0  0  0  0  0  0  0  0  0  0  0
    2.5863   -6.2456    0.0000 N   0  0  0  0  0  0  0  0  0  0  0  0
    2.8412   -7.0302    0.0000 N   0  0  0  0  0  0  0  0  0  0  0  0
    2.1738   -7.5151    0.0000 C   0  0  0  0  0  0  0  0  0  0  0  0
    1.5063   -7.0302    0.0000 N   0  0  0  0  0  0  0  0  0  0  0  0
    2.1738   -8.3401    0.0000 C   0  0  0  0  0  0  0  0  0  0  0  0
    2.1738   -9.1651    0.0000 F   0  0  0  0  0  0  0  0  0  0  0  0
    1.3488   -8.3401    0.0000 F   0  0  0  0  0  0  0  0  0  0  0  0
    2.9988   -8.3401    0.0000 F   0  0  0  0  0  0  0  0  0  0  0  0
    0.7145   -2.0625    0.0000 H   0  0  0  0  0  0  0  0  0  0  0  0
    2.1665   -3.1175    0.0000 H   0  0  0  0  0  0  0  0  0  0  0  0
   -2.7484   -3.9666    0.0000 H   0  0  0  0  0  0  0  0  0  0  0  0
   -4.3176   -3.4567    0.0000 H   0  0  0  0  0  0  0  0  0  0  0  0
   -4.6607   -1.8428    0.0000 H   0  0  0  0  0  0  0  0  0  0  0  0
   -3.4345   -0.7387    0.0000 H   0  0  0  0  0  0  0  0  0  0  0  0
   -1.8653   -1.2486    0.0000 H   0  0  0  0  0  0  0  0  0  0  0  0
    0.7217   -7.2851    0.0000 H   0  0  0  0  0  0  0  0  0  0  0  0
  1  2  4  0  0  0  0
  2  3  4  0  0  0  0
  3  4  4  0  0  0  0
  4  5  4  0  0  0  0
  1  5  4  0  0  0  0
  5  6  1  0  0  0  0
  6  7  3  0  0  0  0
  7  8  1  0  0  0  0
  8  9  4  0  0  0  0
  9 10  4  0  0  0  0
 10 11  4  0  0  0  0
 11 12  4  0  0  0  0
 12 13  4  0  0  0  0
  8 13  4  0  0  0  0
  3 14  1  0  0  0  0
 14 15  2  0  0  0  0
 14 16  1  0  0  0  0
 16 17  1  0  0  0  0
 17 18  4  0  0  0  0
 18 19  4  0  0  0  0
 19 20  4  0  0  0  0
 20 21  4  0  0  0  0
 17 21  4  0  0  0  0
 20 22  1  0  0  0  0
 22 23  1  0  0  0  0
 22 24  1  0  0  0  0
 22 25  1  0  0  0  0
  1 26  1  0  0  0  0
  2 27  1  0  0  0  0
  9 28  1  0  0  0  0
 10 29  1  0  0  0  0
 11 30  1  0  0  0  0
 12 31  1  0  0  0  0
 13 32  1  0  0  0  0
 21 33  1  0  0  0  0
M  END
> <Compound_name>
15

> <Standard Type>
IC50

> <Standard Relation>
'='

> <Standard Value>
3000.0

> <Standard Units>
nM

> <Outcome>
Active

> <InChIKey>
VNGWUVBXUIDQTK-UHFFFAOYSA-N

> <Molecule ChEMBL ID>
CHEMBL379642

$$$$

  Mrv1817 04132013512D          

 46 48  0  0  0  0            999 V2000
    0.7145   -2.0621    0.0000 N   0  0  0  0  0  0  0  0  0  0  0  0
    1.4289   -1.6496    0.0000 C   0  0  0  0  0  0  0  0  0  0  0  0
    1.4289   -0.8246    0.0000 O   0  0  0  0  0  0  0  0  0  0  0  0
    2.1434   -2.0621    0.0000 C   0  0  0  0  0  0  0  0  0  0  0  0
    2.8579   -1.6496    0.0000 S   0  0  0  0  0  0  0  0  0  0  0  0
    3.5724   -2.0621    0.0000 C   0  0  0  0  0  0  0  0  0  0  0  0
    4.2868   -1.6496    0.0000 N   0  0  0  0  0  0  0  0  0  0  0  0
    5.0013   -2.0621    0.0000 C   0  0  0  0  0  0  0  0  0  0  0  0
    5.7158   -1.6496    0.0000 O   0  0  0  0  0  0  0  0  0  0  0  0
    5.0013   -2.8871    0.0000 C   0  0  0  0  0  0  0  0  0  0  0  0
    5.7158   -3.2996    0.0000 C   0  0  0  0  0  0  0  0  0  0  0  0
    6.4302   -3.7121    0.0000 N   0  0  0  0  0  0  0  0  0  0  0  0
    4.2868   -3.2996    0.0000 C   0  0  0  0  0  0  0  0  0  0  0  0
    3.5724   -2.8871    0.0000 N   0  0  0  0  0  0  0  0  0  0  0  0
    4.2868   -4.1246    0.0000 C   0  0  0  0  0  0  0  0  0  0  0  0
    5.0013   -4.5371    0.0000 C   0  0  0  0  0  0  0  0  0  0  0  0
    5.0013   -5.3621    0.0000 C   0  0  0  0  0  0  0  0  0  0  0  0
    4.2868   -5.7746    0.0000 C   0  0  0  0  0  0  0  0  0  0  0  0
    3.5724   -5.3621    0.0000 C   0  0  0  0  0  0  0  0  0  0  0  0
    2.8579   -5.7746    0.0000 O   0  0  0  0  0  0  0  0  0  0  0  0
    2.8579   -6.5996    0.0000 C   0  0  0  0  0  0  0  0  0  0  0  0
    3.5724   -4.5371    0.0000 C   0  0  0  0  0  0  0  0  0  0  0  0
    0.0000   -1.6496    0.0000 C   0  0  0  0  0  0  0  0  0  0  0  0
   -0.7145   -2.0621    0.0000 C   0  0  0  0  0  0  0  0  0  0  0  0
   -1.4289   -1.6496    0.0000 C   0  0  0  0  0  0  0  0  0  0  0  0
   -1.4289   -0.8246    0.0000 C   0  0  0  0  0  0  0  0  0  0  0  0
   -0.7145   -0.4121    0.0000 C   0  0  0  0  0  0  0  0  0  0  0  0
    0.0000   -0.8246    0.0000 C   0  0  0  0  0  0  0  0  0  0  0  0
   -2.1434   -0.4121    0.0000 N   0  0  0  0  0  0  0  0  0  0  0  0
   -2.8579   -0.8246    0.0000 O   0  0  0  0  0  0  0  0  0  0  0  0
   -2.1434    0.4129    0.0000 O   0  0  0  0  0  0  0  0  0  0  0  0
    0.7145   -2.8871    0.0000 H   0  0  0  0  0  0  0  0  0  0  0  0
    1.7732   -2.7994    0.0000 H   0  0  0  0  0  0  0  0  0  0  0  0
    2.5137   -2.7994    0.0000 H   0  0  0  0  0  0  0  0  0  0  0  0
    2.8579   -3.2996    0.0000 H   0  0  0  0  0  0  0  0  0  0  0  0
    5.7158   -4.1246    0.0000 H   0  0  0  0  0  0  0  0  0  0  0  0
    5.7158   -5.7746    0.0000 H   0  0  0  0  0  0  0  0  0  0  0  0
    4.2868   -6.5996    0.0000 H   0  0  0  0  0  0  0  0  0  0  0  0
    2.0329   -6.5996    0.0000 H   0  0  0  0  0  0  0  0  0  0  0  0
    2.8579   -7.4246    0.0000 H   0  0  0  0  0  0  0  0  0  0  0  0
    3.6829   -6.5996    0.0000 H   0  0  0  0  0  0  0  0  0  0  0  0
    2.8579   -4.1246    0.0000 H   0  0  0  0  0  0  0  0  0  0  0  0
   -0.7145   -2.8871    0.0000 H   0  0  0  0  0  0  0  0  0  0  0  0
   -2.1434   -2.0621    0.0000 H   0  0  0  0  0  0  0  0  0  0  0  0
   -0.7145    0.4129    0.0000 H   0  0  0  0  0  0  0  0  0  0  0  0
    0.7145   -0.4121    0.0000 H   0  0  0  0  0  0  0  0  0  0  0  0
  1  2  1  0  0  0  0
  2  3  2  0  0  0  0
  2  4  1  0  0  0  0
  4  5  1  0  0  0  0
  5  6  1  0  0  0  0
  6  7  2  0  0  0  0
  7  8  1  0  0  0  0
  8  9  2  0  0  0  0
  8 10  1  0  0  0  0
 10 11  1  0  0  0  0
 11 12  3  0  0  0  0
 10 13  2  0  0  0  0
 13 14  1  0  0  0  0
  6 14  1  0  0  0  0
 13 15  1  0  0  0  0
 15 16  4  0  0  0  0
 16 17  4  0  0  0  0
 17 18  4  0  0  0  0
 18 19  4  0  0  0  0
 19 20  1  0  0  0  0
 20 21  1  0  0  0  0
 19 22  4  0  0  0  0
 15 22  4  0  0  0  0
  1 23  1  0  0  0  0
 23 24  4  0  0  0  0
 24 25  4  0  0  0  0
 25 26  4  0  0  0  0
 26 27  4  0  0  0  0
 27 28  4  0  0  0  0
 23 28  4  0  0  0  0
 26 29  1  0  0  0  0
 29 30  2  0  0  0  0
 29 31  2  0  0  0  0
  1 32  1  0  0  0  0
  4 33  1  0  0  0  0
  4 34  1  0  0  0  0
 14 35  1  0  0  0  0
 16 36  1  0  0  0  0
 17 37  1  0  0  0  0
 18 38  1  0  0  0  0
 21 39  1  0  0  0  0
 21 40  1  0  0  0  0
 21 41  1  0  0  0  0
 22 42  1  0  0  0  0
 24 43  1  0  0  0  0
 25 44  1  0  0  0  0
 27 45  1  0  0  0  0
 28 46  1  0  0  0  0
M  END
> <Compound_name>
23

> <Standard Type>
IC50

> <Standard Relation>
'='

> <Standard Value>
1.655655757412955E12

> <Standard Units>
nM

> <Outcome>
Inactive

> <InChIKey>
VZQGOJYNWVCAKC-UHFFFAOYSA-N

> <Molecule ChEMBL ID>
CHEMBL210146

$$$$

  Mrv1817 04132013512D          

 73 74  0  0  0  0            999 V2000
    0.7147   -1.2371    0.0000 N   0  0  0  0  0  0  0  0  0  0  0  0
    0.0002   -0.8246    0.0000 C   0  0  0  0  0  0  0  0  0  0  0  0
    0.0002    0.0004    0.0000 C   0  0  0  0  0  0  0  0  0  0  0  0
   -0.7143    0.4129    0.0000 C   0  0  0  0  0  0  0  0  0  0  0  0
   -1.4287    0.0004    0.0000 O   0  0  0  0  0  0  0  0  0  0  0  0
   -0.7143    1.2379    0.0000 O   0  0  0  0  0  0  0  0  0  0  0  0
   -1.4287    1.6504    0.0000 C   0  0  0  0  0  0  0  0  0  0  0  0
   -1.4287    2.4754    0.0000 C   0  0  0  0  0  0  0  0  0  0  0  0
    0.7147    0.4129    0.0000 C   0  0  0  0  0  0  0  0  0  0  0  0
    0.7147    1.2379    0.0000 O   0  0  0  0  0  0  0  0  0  0  0  0
    1.4292    0.0004    0.0000 O   0  0  0  0  0  0  0  0  0  0  0  0
    2.1436    0.4129    0.0000 C   0  0  0  0  0  0  0  0  0  0  0  0
    2.8581    0.0004    0.0000 C   0  0  0  0  0  0  0  0  0  0  0  0
    0.7147   -2.0621    0.0000 C   0  0  0  0  0  0  0  0  0  0  0  0
    1.4292   -2.4746    0.0000 C   0  0  0  0  0  0  0  0  0  0  0  0
    1.4292   -3.2996    0.0000 C   0  0  0  0  0  0  0  0  0  0  0  0
    0.7147   -3.7121    0.0000 C   0  0  0  0  0  0  0  0  0  0  0  0
    0.0002   -3.2996    0.0000 C   0  0  0  0  0  0  0  0  0  0  0  0
    0.0002   -2.4746    0.0000 C   0  0  0  0  0  0  0  0  0  0  0  0
    0.7147   -4.5371    0.0000 S   0  0  0  0  0  0  0  0  0  0  0  0
   -0.1103   -4.5371    0.0000 O   0  0  0  0  0  0  0  0  0  0  0  0
    1.5397   -4.5371    0.0000 O   0  0  0  0  0  0  0  0  0  0  0  0
    0.7147   -5.3621    0.0000 C   0  0  0  0  0  0  0  0  0  0  0  0
    1.4292   -5.7746    0.0000 C   0  0  0  0  0  0  0  0  0  0  0  0
    1.4292   -6.5996    0.0000 C   0  0  0  0  0  0  0  0  0  0  0  0
    0.7147   -7.0121    0.0000 C   0  0  0  0  0  0  0  0  0  0  0  0
    0.7147   -7.8371    0.0000 N   0  0  0  0  0  0  0  0  0  0  0  0
    1.4292   -8.2496    0.0000 C   0  0  0  0  0  0  0  0  0  0  0  0
    1.4292   -9.0746    0.0000 C   0  0  0  0  0  0  0  0  0  0  0  0
    2.1436   -9.4871    0.0000 C   0  0  0  0  0  0  0  0  0  0  0  0
    2.1436  -10.3121    0.0000 O   0  0  0  0  0  0  0  0  0  0  0  0
    2.8581   -9.0746    0.0000 O   0  0  0  0  0  0  0  0  0  0  0  0
    3.5726   -9.4871    0.0000 C   0  0  0  0  0  0  0  0  0  0  0  0
    4.2870   -9.0746    0.0000 C   0  0  0  0  0  0  0  0  0  0  0  0
    0.7147   -9.4871    0.0000 C   0  0  0  0  0  0  0  0  0  0  0  0
    0.7147  -10.3121    0.0000 O   0  0  0  0  0  0  0  0  0  0  0  0
    0.0002   -9.0746    0.0000 O   0  0  0  0  0  0  0  0  0  0  0  0
   -0.7143   -9.4871    0.0000 C   0  0  0  0  0  0  0  0  0  0  0  0
   -1.4287   -9.0746    0.0000 C   0  0  0  0  0  0  0  0  0  0  0  0
    0.0002   -6.5996    0.0000 C   0  0  0  0  0  0  0  0  0  0  0  0
    0.0002   -5.7746    0.0000 C   0  0  0  0  0  0  0  0  0  0  0  0
    1.4292   -0.8246    0.0000 H   0  0  0  0  0  0  0  0  0  0  0  0
   -0.7143   -1.2371    0.0000 H   0  0  0  0  0  0  0  0  0  0  0  0
   -2.2523    1.6024    0.0000 H   0  0  0  0  0  0  0  0  0  0  0  0
   -1.8821    0.9611    0.0000 H   0  0  0  0  0  0  0  0  0  0  0  0
   -0.6037    2.4754    0.0000 H   0  0  0  0  0  0  0  0  0  0  0  0
   -1.4287    3.3004    0.0000 H   0  0  0  0  0  0  0  0  0  0  0  0
   -2.2537    2.4754    0.0000 H   0  0  0  0  0  0  0  0  0  0  0  0
    2.5139    1.1501    0.0000 H   0  0  0  0  0  0  0  0  0  0  0  0
    1.7734    1.1501    0.0000 H   0  0  0  0  0  0  0  0  0  0  0  0
    2.4456   -0.7141    0.0000 H   0  0  0  0  0  0  0  0  0  0  0  0
    3.5726   -0.4121    0.0000 H   0  0  0  0  0  0  0  0  0  0  0  0
    3.2706    0.7148    0.0000 H   0  0  0  0  0  0  0  0  0  0  0  0
    2.1436   -2.0621    0.0000 H   0  0  0  0  0  0  0  0  0  0  0  0
    2.1436   -3.7121    0.0000 H   0  0  0  0  0  0  0  0  0  0  0  0
   -0.7143   -3.7121    0.0000 H   0  0  0  0  0  0  0  0  0  0  0  0
   -0.7143   -2.0621    0.0000 H   0  0  0  0  0  0  0  0  0  0  0  0
    2.1436   -5.3621    0.0000 H   0  0  0  0  0  0  0  0  0  0  0  0
    2.1436   -7.0121    0.0000 H   0  0  0  0  0  0  0  0  0  0  0  0
    0.0002   -8.2496    0.0000 H   0  0  0  0  0  0  0  0  0  0  0  0
    2.1436   -7.8371    0.0000 H   0  0  0  0  0  0  0  0  0  0  0  0
    3.2023  -10.2244    0.0000 H   0  0  0  0  0  0  0  0  0  0  0  0
    3.9428  -10.2244    0.0000 H   0  0  0  0  0  0  0  0  0  0  0  0
    4.6995   -9.7891    0.0000 H   0  0  0  0  0  0  0  0  0  0  0  0
    5.0015   -8.6621    0.0000 H   0  0  0  0  0  0  0  0  0  0  0  0
    3.8745   -8.3602    0.0000 H   0  0  0  0  0  0  0  0  0  0  0  0
   -1.0845  -10.2244    0.0000 H   0  0  0  0  0  0  0  0  0  0  0  0
   -0.3440  -10.2244    0.0000 H   0  0  0  0  0  0  0  0  0  0  0  0
   -1.0162   -8.3602    0.0000 H   0  0  0  0  0  0  0  0  0  0  0  0
   -2.1432   -8.6621    0.0000 H   0  0  0  0  0  0  0  0  0  0  0  0
   -1.8412   -9.7891    0.0000 H   0  0  0  0  0  0  0  0  0  0  0  0
   -0.7143   -7.0121    0.0000 H   0  0  0  0  0  0  0  0  0  0  0  0
   -0.7143   -5.3621    0.0000 H   0  0  0  0  0  0  0  0  0  0  0  0
  1  2  1  0  0  0  0
  2  3  2  0  0  0  0
  3  4  1  0  0  0  0
  4  5  2  0  0  0  0
  4  6  1  0  0  0  0
  6  7  1  0  0  0  0
  7  8  1  0  0  0  0
  3  9  1  0  0  0  0
  9 10  2  0  0  0  0
  9 11  1  0  0  0  0
 11 12  1  0  0  0  0
 12 13  1  0  0  0  0
  1 14  1  0  0  0  0
 14 15  4  0  0  0  0
 15 16  4  0  0  0  0
 16 17  4  0  0  0  0
 17 18  4  0  0  0  0
 18 19  4  0  0  0  0
 14 19  4  0  0  0  0
 17 20  1  0  0  0  0
 20 21  2  0  0  0  0
 20 22  2  0  0  0  0
 20 23  1  0  0  0  0
 23 24  4  0  0  0  0
 24 25  4  0  0  0  0
 25 26  4  0  0  0  0
 26 27  1  0  0  0  0
 27 28  1  0  0  0  0
 28 29  2  0  0  0  0
 29 30  1  0  0  0  0
 30 31  2  0  0  0  0
 30 32  1  0  0  0  0
 32 33  1  0  0  0  0
 33 34  1  0  0  0  0
 29 35  1  0  0  0  0
 35 36  2  0  0  0  0
 35 37  1  0  0  0  0
 37 38  1  0  0  0  0
 38 39  1  0  0  0  0
 26 40  4  0  0  0  0
 40 41  4  0  0  0  0
 23 41  4  0  0  0  0
  1 42  1  0  0  0  0
  2 43  1  0  0  0  0
  7 44  1  0  0  0  0
  7 45  1  0  0  0  0
  8 46  1  0  0  0  0
  8 47  1  0  0  0  0
  8 48  1  0  0  0  0
 12 49  1  0  0  0  0
 12 50  1  0  0  0  0
 13 51  1  0  0  0  0
 13 52  1  0  0  0  0
 13 53  1  0  0  0  0
 15 54  1  0  0  0  0
 16 55  1  0  0  0  0
 18 56  1  0  0  0  0
 19 57  1  0  0  0  0
 24 58  1  0  0  0  0
 25 59  1  0  0  0  0
 27 60  1  0  0  0  0
 28 61  1  0  0  0  0
 33 62  1  0  0  0  0
 33 63  1  0  0  0  0
 34 64  1  0  0  0  0
 34 65  1  0  0  0  0
 34 66  1  0  0  0  0
 38 67  1  0  0  0  0
 38 68  1  0  0  0  0
 39 69  1  0  0  0  0
 39 70  1  0  0  0  0
 39 71  1  0  0  0  0
 40 72  1  0  0  0  0
 41 73  1  0  0  0  0
M  END
> <Compound_name>
14

> <Standard Type>
IC50

> <Standard Relation>
'='

> <Standard Value>
32000.0

> <Standard Units>
nM

> <Outcome>
Inactive

> <InChIKey>
WDGGKTJDOULDBD-UHFFFAOYSA-N

> <Molecule ChEMBL ID>
CHEMBL378342

$$$$

  Mrv1817 04132013512D          

 85 86  0  0  0  0            999 V2000
    2.8056   -1.3909    0.0000 N   0  0  0  0  0  0  0  0  0  0  0  0
    2.1820   -1.9310    0.0000 C   0  0  0  0  0  0  0  0  0  0  0  0
    2.3379   -2.7411    0.0000 O   0  0  0  0  0  0  0  0  0  0  0  0
    1.4025   -1.6609    0.0000 O   0  0  0  0  0  0  0  0  0  0  0  0
    0.7788   -2.2010    0.0000 C   0  0  0  0  0  0  0  0  0  0  0  0
   -0.0007   -1.9310    0.0000 C   0  0  0  0  0  0  0  0  0  0  0  0
   -0.6244   -2.4711    0.0000 C   0  0  0  0  0  0  0  0  0  0  0  0
   -1.4039   -2.2010    0.0000 C   0  0  0  0  0  0  0  0  0  0  0  0
   -1.5598   -1.3909    0.0000 C   0  0  0  0  0  0  0  0  0  0  0  0
   -0.9362   -0.8508    0.0000 C   0  0  0  0  0  0  0  0  0  0  0  0
   -0.1566   -1.1209    0.0000 C   0  0  0  0  0  0  0  0  0  0  0  0
    3.5852   -1.6609    0.0000 C   0  0  0  0  0  0  0  0  0  0  0  0
    4.2088   -1.1209    0.0000 C   0  0  0  0  0  0  0  0  0  0  0  0
    4.0529   -0.3107    0.0000 O   0  0  0  0  0  0  0  0  0  0  0  0
    4.9884   -1.3909    0.0000 N   0  0  0  0  0  0  0  0  0  0  0  0
    5.6120   -0.8508    0.0000 C   0  0  0  0  0  0  0  0  0  0  0  0
    6.3916   -1.1209    0.0000 C   0  0  0  0  0  0  0  0  0  0  0  0
    6.5475   -1.9310    0.0000 O   0  0  0  0  0  0  0  0  0  0  0  0
    7.0152   -0.5808    0.0000 N   0  0  0  0  0  0  0  0  0  0  0  0
    7.7948   -0.8508    0.0000 C   0  0  0  0  0  0  0  0  0  0  0  0
    8.4184   -0.3107    0.0000 C   0  0  0  0  0  0  0  0  0  0  0  0
    9.1980   -0.5808    0.0000 C   0  0  0  0  0  0  0  0  0  0  0  0
    9.8216   -0.0407    0.0000 C   0  0  0  0  0  0  0  0  0  0  0  0
   10.6012   -0.3107    0.0000 O   0  0  0  0  0  0  0  0  0  0  0  0
    9.6657    0.7695    0.0000 O   0  0  0  0  0  0  0  0  0  0  0  0
   10.2893    1.3096    0.0000 C   0  0  0  0  0  0  0  0  0  0  0  0
   10.1334    2.1197    0.0000 C   0  0  0  0  0  0  0  0  0  0  0  0
    7.9507   -1.6609    0.0000 C   0  0  0  0  0  0  0  0  0  0  0  0
    8.7302   -1.9310    0.0000 C   0  0  0  0  0  0  0  0  0  0  0  0
    8.9700   -2.7204    0.0000 C   0  0  0  0  0  0  0  0  0  0  0  0
    8.4723   -3.3783    0.0000 O   0  0  0  0  0  0  0  0  0  0  0  0
    9.7948   -2.7363    0.0000 N   0  0  0  0  0  0  0  0  0  0  0  0
   10.0649   -1.9568    0.0000 C   0  0  0  0  0  0  0  0  0  0  0  0
    9.4069   -1.4590    0.0000 C   0  0  0  0  0  0  0  0  0  0  0  0
    5.4561   -0.0407    0.0000 C   0  0  0  0  0  0  0  0  0  0  0  0
    6.0798    0.4994    0.0000 C   0  0  0  0  0  0  0  0  0  0  0  0
    5.9239    1.3096    0.0000 C   0  0  0  0  0  0  0  0  0  0  0  0
    6.8593    0.2294    0.0000 C   0  0  0  0  0  0  0  0  0  0  0  0
    3.7411   -2.4711    0.0000 C   0  0  0  0  0  0  0  0  0  0  0  0
    4.5207   -2.7411    0.0000 C   0  0  0  0  0  0  0  0  0  0  0  0
    3.1175   -3.0112    0.0000 C   0  0  0  0  0  0  0  0  0  0  0  0
    2.6497   -0.5808    0.0000 H   0  0  0  0  0  0  0  0  0  0  0  0
    0.5546   -2.9950    0.0000 H   0  0  0  0  0  0  0  0  0  0  0  0
    1.2817   -2.8550    0.0000 H   0  0  0  0  0  0  0  0  0  0  0  0
   -0.4685   -3.2812    0.0000 H   0  0  0  0  0  0  0  0  0  0  0  0
   -2.0276   -2.7411    0.0000 H   0  0  0  0  0  0  0  0  0  0  0  0
   -2.3394   -1.1209    0.0000 H   0  0  0  0  0  0  0  0  0  0  0  0
   -1.0921   -0.0407    0.0000 H   0  0  0  0  0  0  0  0  0  0  0  0
    0.4670   -0.5808    0.0000 H   0  0  0  0  0  0  0  0  0  0  0  0
    3.4293   -0.8508    0.0000 H   0  0  0  0  0  0  0  0  0  0  0  0
    5.1443   -2.2010    0.0000 H   0  0  0  0  0  0  0  0  0  0  0  0
    5.7679   -1.6609    0.0000 H   0  0  0  0  0  0  0  0  0  0  0  0
    6.2357   -0.3107    0.0000 H   0  0  0  0  0  0  0  0  0  0  0  0
    7.6389   -0.0407    0.0000 H   0  0  0  0  0  0  0  0  0  0  0  0
    8.6885    0.4688    0.0000 H   0  0  0  0  0  0  0  0  0  0  0  0
    9.9832   -0.8338    0.0000 H   0  0  0  0  0  0  0  0  0  0  0  0
   10.8648    0.7184    0.0000 H   0  0  0  0  0  0  0  0  0  0  0  0
   11.1072    1.4181    0.0000 H   0  0  0  0  0  0  0  0  0  0  0  0
   10.9436    2.2756    0.0000 H   0  0  0  0  0  0  0  0  0  0  0  0
    9.9775    2.9298    0.0000 H   0  0  0  0  0  0  0  0  0  0  0  0
    9.3233    1.9638    0.0000 H   0  0  0  0  0  0  0  0  0  0  0  0
    7.1510   -1.8637    0.0000 H   0  0  0  0  0  0  0  0  0  0  0  0
    7.6358   -2.4235    0.0000 H   0  0  0  0  0  0  0  0  0  0  0  0
    8.6169   -1.1138    0.0000 H   0  0  0  0  0  0  0  0  0  0  0  0
   10.2668   -3.4130    0.0000 H   0  0  0  0  0  0  0  0  0  0  0  0
   10.8744   -2.1157    0.0000 H   0  0  0  0  0  0  0  0  0  0  0  0
   10.6493   -1.3745    0.0000 H   0  0  0  0  0  0  0  0  0  0  0  0
    9.3910   -2.2839    0.0000 H   0  0  0  0  0  0  0  0  0  0  0  0
   10.2286   -1.3855    0.0000 H   0  0  0  0  0  0  0  0  0  0  0  0
    4.8807    0.5505    0.0000 H   0  0  0  0  0  0  0  0  0  0  0  0
    4.6383   -0.1492    0.0000 H   0  0  0  0  0  0  0  0  0  0  0  0
    5.3002    0.7695    0.0000 H   0  0  0  0  0  0  0  0  0  0  0  0
    6.7467    1.2505    0.0000 H   0  0  0  0  0  0  0  0  0  0  0  0
    6.1939    2.0891    0.0000 H   0  0  0  0  0  0  0  0  0  0  0  0
    5.2408    1.7722    0.0000 H   0  0  0  0  0  0  0  0  0  0  0  0
    7.6015    0.5896    0.0000 H   0  0  0  0  0  0  0  0  0  0  0  0
    7.1294    1.0089    0.0000 H   0  0  0  0  0  0  0  0  0  0  0  0
    6.4990    0.9715    0.0000 H   0  0  0  0  0  0  0  0  0  0  0  0
    4.3648   -1.9310    0.0000 H   0  0  0  0  0  0  0  0  0  0  0  0
    3.8970   -3.2812    0.0000 H   0  0  0  0  0  0  0  0  0  0  0  0
    4.6766   -3.5513    0.0000 H   0  0  0  0  0  0  0  0  0  0  0  0
    5.3002   -3.0112    0.0000 H   0  0  0  0  0  0  0  0  0  0  0  0
    2.5971   -3.6513    0.0000 H   0  0  0  0  0  0  0  0  0  0  0  0
    3.1303   -3.8361    0.0000 H   0  0  0  0  0  0  0  0  0  0  0  0
    2.9616   -2.2010    0.0000 H   0  0  0  0  0  0  0  0  0  0  0  0
  1  2  1  0  0  0  0
  2  3  2  0  0  0  0
  2  4  1  0  0  0  0
  4  5  1  0  0  0  0
  5  6  1  0  0  0  0
  6  7  4  0  0  0  0
  7  8  4  0  0  0  0
  8  9  4  0  0  0  0
  9 10  4  0  0  0  0
 10 11  4  0  0  0  0
  6 11  4  0  0  0  0
  1 12  1  0  0  0  0
 12 13  1  0  0  0  0
 13 14  2  0  0  0  0
 13 15  1  0  0  0  0
 15 16  1  0  0  0  0
 16 17  1  0  0  0  0
 17 18  2  0  0  0  0
 17 19  1  0  0  0  0
 19 20  1  0  0  0  0
 21 20  1  4  0  0  0
 21 22  2  0  0  0  0
 22 23  1  0  0  0  0
 23 24  2  0  0  0  0
 23 25  1  0  0  0  0
 25 26  1  0  0  0  0
 26 27  1  0  0  0  0
 20 28  1  0  0  0  0
 28 29  1  0  0  0  0
 29 30  1  0  0  0  0
 30 31  2  0  0  0  0
 30 32  1  0  0  0  0
 32 33  1  0  0  0  0
 33 34  1  0  0  0  0
 29 34  1  0  0  0  0
 16 35  1  0  0  0  0
 35 36  1  0  0  0  0
 36 37  1  0  0  0  0
 36 38  1  0  0  0  0
 12 39  1  0  0  0  0
 39 40  1  0  0  0  0
 39 41  1  0  0  0  0
  1 42  1  0  0  0  0
  5 43  1  0  0  0  0
  5 44  1  0  0  0  0
  7 45  1  0  0  0  0
  8 46  1  0  0  0  0
  9 47  1  0  0  0  0
 10 48  1  0  0  0  0
 11 49  1  0  0  0  0
 12 50  1  0  0  0  0
 15 51  1  0  0  0  0
 16 52  1  0  0  0  0
 19 53  1  0  0  0  0
 20 54  1  0  0  0  0
 21 55  1  0  0  0  0
 22 56  1  0  0  0  0
 26 57  1  0  0  0  0
 26 58  1  0  0  0  0
 27 59  1  0  0  0  0
 27 60  1  0  0  0  0
 27 61  1  0  0  0  0
 28 62  1  0  0  0  0
 28 63  1  0  0  0  0
 29 64  1  0  0  0  0
 32 65  1  0  0  0  0
 33 66  1  0  0  0  0
 33 67  1  0  0  0  0
 34 68  1  0  0  0  0
 34 69  1  0  0  0  0
 35 70  1  0  0  0  0
 35 71  1  0  0  0  0
 36 72  1  0  0  0  0
 37 73  1  0  0  0  0
 37 74  1  0  0  0  0
 37 75  1  0  0  0  0
 38 76  1  0  0  0  0
 38 77  1  0  0  0  0
 38 78  1  0  0  0  0
 39 79  1  0  0  0  0
 40 80  1  0  0  0  0
 40 81  1  0  0  0  0
 40 82  1  0  0  0  0
 41 83  1  0  0  0  0
 41 84  1  0  0  0  0
 41 85  1  0  0  0  0
M  END
> <Compound_name>
3

> <Standard Type>
Ki

> <Standard Relation>
'='

> <Standard Value>
660.0

> <Standard Units>
nM

> <Outcome>
Active

> <InChIKey>
WDMSWWUPIMEGNZ-UHFFFAOYNA-N

> <Molecule ChEMBL ID>
CHEMBL213543

$$$$

  Mrv1817 04132013512D          

 51 54  0  0  0  0            999 V2000
   -3.4656   -2.9488    0.0000 N   0  0  0  0  0  0  0  0  0  0  0  0
   -2.7512   -2.5363    0.0000 C   0  0  0  0  0  0  0  0  0  0  0  0
   -2.7512   -1.7113    0.0000 O   0  0  0  0  0  0  0  0  0  0  0  0
   -2.0367   -2.9488    0.0000 C   0  0  0  0  0  0  0  0  0  0  0  0
   -1.3222   -2.5363    0.0000 S   0  0  0  0  0  0  0  0  0  0  0  0
   -0.6078   -2.9488    0.0000 C   0  0  0  0  0  0  0  0  0  0  0  0
    0.1067   -2.5363    0.0000 N   0  0  0  0  0  0  0  0  0  0  0  0
    0.8212   -2.9488    0.0000 C   0  0  0  0  0  0  0  0  0  0  0  0
    0.8212   -3.7738    0.0000 C   0  0  0  0  0  0  0  0  0  0  0  0
    0.1067   -4.1863    0.0000 C   0  0  0  0  0  0  0  0  0  0  0  0
   -0.6078   -3.7738    0.0000 N   0  0  0  0  0  0  0  0  0  0  0  0
    0.1067   -5.0113    0.0000 C   0  0  0  0  0  0  0  0  0  0  0  0
    0.7741   -5.4962    0.0000 C   0  0  0  0  0  0  0  0  0  0  0  0
    1.5588   -5.2412    0.0000 S   0  0  0  0  0  0  0  0  0  0  0  0
    2.1719   -5.7933    0.0000 C   0  0  0  0  0  0  0  0  0  0  0  0
    0.5192   -6.2808    0.0000 S   0  0  0  0  0  0  0  0  0  0  0  0
   -0.3058   -6.2808    0.0000 C   0  0  0  0  0  0  0  0  0  0  0  0
   -0.7907   -6.9482    0.0000 C   0  0  0  0  0  0  0  0  0  0  0  0
   -0.5358   -7.7329    0.0000 N   0  0  0  0  0  0  0  0  0  0  0  0
   -1.2032   -8.2178    0.0000 C   0  0  0  0  0  0  0  0  0  0  0  0
   -1.8707   -7.7329    0.0000 C   0  0  0  0  0  0  0  0  0  0  0  0
   -1.6157   -6.9482    0.0000 S   0  0  0  0  0  0  0  0  0  0  0  0
   -1.2032   -9.0428    0.0000 C   0  0  0  0  0  0  0  0  0  0  0  0
   -0.5607   -5.4962    0.0000 C   0  0  0  0  0  0  0  0  0  0  0  0
   -1.3454   -5.2412    0.0000 C   0  0  0  0  0  0  0  0  0  0  0  0
   -4.1801   -2.5363    0.0000 C   0  0  0  0  0  0  0  0  0  0  0  0
   -4.8946   -2.9488    0.0000 C   0  0  0  0  0  0  0  0  0  0  0  0
   -5.6091   -2.5363    0.0000 C   0  0  0  0  0  0  0  0  0  0  0  0
   -5.6091   -1.7113    0.0000 C   0  0  0  0  0  0  0  0  0  0  0  0
   -6.3235   -1.2988    0.0000 Cl  0  0  0  0  0  0  0  0  0  0  0  0
   -4.8946   -1.2988    0.0000 C   0  0  0  0  0  0  0  0  0  0  0  0
   -4.1801   -1.7113    0.0000 C   0  0  0  0  0  0  0  0  0  0  0  0
   -3.4656   -3.7738    0.0000 H   0  0  0  0  0  0  0  0  0  0  0  0
   -2.4070   -3.6860    0.0000 H   0  0  0  0  0  0  0  0  0  0  0  0
   -1.6664   -3.6860    0.0000 H   0  0  0  0  0  0  0  0  0  0  0  0
    1.5356   -2.5363    0.0000 H   0  0  0  0  0  0  0  0  0  0  0  0
    1.5356   -4.1863    0.0000 H   0  0  0  0  0  0  0  0  0  0  0  0
    1.6198   -6.4064    0.0000 H   0  0  0  0  0  0  0  0  0  0  0  0
    2.7850   -6.3453    0.0000 H   0  0  0  0  0  0  0  0  0  0  0  0
    2.7239   -5.1802    0.0000 H   0  0  0  0  0  0  0  0  0  0  0  0
   -2.6553   -7.9878    0.0000 H   0  0  0  0  0  0  0  0  0  0  0  0
   -2.0282   -9.0428    0.0000 H   0  0  0  0  0  0  0  0  0  0  0  0
   -1.2032   -9.8678    0.0000 H   0  0  0  0  0  0  0  0  0  0  0  0
   -0.3782   -9.0428    0.0000 H   0  0  0  0  0  0  0  0  0  0  0  0
   -1.0904   -4.4566    0.0000 H   0  0  0  0  0  0  0  0  0  0  0  0
   -2.1300   -4.9863    0.0000 H   0  0  0  0  0  0  0  0  0  0  0  0
   -1.6003   -6.0259    0.0000 H   0  0  0  0  0  0  0  0  0  0  0  0
   -4.8946   -3.7738    0.0000 H   0  0  0  0  0  0  0  0  0  0  0  0
   -6.3235   -2.9488    0.0000 H   0  0  0  0  0  0  0  0  0  0  0  0
   -4.8946   -0.4738    0.0000 H   0  0  0  0  0  0  0  0  0  0  0  0
   -3.4656   -1.2988    0.0000 H   0  0  0  0  0  0  0  0  0  0  0  0
  1  2  1  0  0  0  0
  2  3  2  0  0  0  0
  2  4  1  0  0  0  0
  4  5  1  0  0  0  0
  5  6  1  0  0  0  0
  6  7  4  0  0  0  0
  7  8  4  0  0  0  0
  8  9  4  0  0  0  0
  9 10  4  0  0  0  0
 10 11  4  0  0  0  0
  6 11  4  0  0  0  0
 10 12  1  0  0  0  0
 12 13  4  0  0  0  0
 13 14  1  0  0  0  0
 14 15  1  0  0  0  0
 13 16  4  0  0  0  0
 16 17  4  0  0  0  0
 17 18  1  0  0  0  0
 18 19  4  0  0  0  0
 19 20  4  0  0  0  0
 20 21  4  0  0  0  0
 21 22  4  0  0  0  0
 18 22  4  0  0  0  0
 20 23  1  0  0  0  0
 17 24  4  0  0  0  0
 12 24  4  0  0  0  0
 24 25  1  0  0  0  0
  1 26  1  0  0  0  0
 26 27  4  0  0  0  0
 27 28  4  0  0  0  0
 28 29  4  0  0  0  0
 29 30  1  0  0  0  0
 29 31  4  0  0  0  0
 31 32  4  0  0  0  0
 26 32  4  0  0  0  0
  1 33  1  0  0  0  0
  4 34  1  0  0  0  0
  4 35  1  0  0  0  0
  8 36  1  0  0  0  0
  9 37  1  0  0  0  0
 15 38  1  0  0  0  0
 15 39  1  0  0  0  0
 15 40  1  0  0  0  0
 21 41  1  0  0  0  0
 23 42  1  0  0  0  0
 23 43  1  0  0  0  0
 23 44  1  0  0  0  0
 25 45  1  0  0  0  0
 25 46  1  0  0  0  0
 25 47  1  0  0  0  0
 27 48  1  0  0  0  0
 28 49  1  0  0  0  0
 31 50  1  0  0  0  0
 32 51  1  0  0  0  0
M  END
> <Compound_name>
3

> <Standard Type>
IC50

> <Standard Relation>
'='

> <Standard Value>
4.45625469121872E13

> <Standard Units>
nM

> <Outcome>
Inactive

> <InChIKey>
WRXXISITJDZVCL-UHFFFAOYSA-N

> <Molecule ChEMBL ID>
CHEMBL210092

$$$$

  Mrv1817 04132013512D          

 41 44  0  0  0  0            999 V2000
    1.1673   -0.0175    0.0000 O   0  0  0  0  0  0  0  0  0  0  0  0
    1.8828    0.3933    0.0000 C   0  0  0  0  0  0  0  0  0  0  0  0
    2.5963   -0.0209    0.0000 C   0  0  0  0  0  0  0  0  0  0  0  0
    3.4084   -0.1661    0.0000 C   0  0  0  0  0  0  0  0  0  0  0  0
    3.9402    0.4646    0.0000 C   0  0  0  0  0  0  0  0  0  0  0  0
    4.7523    0.3194    0.0000 C   0  0  0  0  0  0  0  0  0  0  0  0
    5.0326   -0.4566    0.0000 C   0  0  0  0  0  0  0  0  0  0  0  0
    5.8447   -0.6018    0.0000 C   0  0  0  0  0  0  0  0  0  0  0  0
    6.4961   -0.0954    0.0000 O   0  0  0  0  0  0  0  0  0  0  0  0
    7.1789   -0.5584    0.0000 C   0  0  0  0  0  0  0  0  0  0  0  0
    6.9496   -1.3509    0.0000 C   0  0  0  0  0  0  0  0  0  0  0  0
    6.1250   -1.3777    0.0000 C   0  0  0  0  0  0  0  0  0  0  0  0
    5.5932   -2.0084    0.0000 C   0  0  0  0  0  0  0  0  0  0  0  0
    5.8735   -2.7843    0.0000 O   0  0  0  0  0  0  0  0  0  0  0  0
    4.7811   -1.8632    0.0000 C   0  0  0  0  0  0  0  0  0  0  0  0
    4.2493   -2.4939    0.0000 O   0  0  0  0  0  0  0  0  0  0  0  0
    4.5008   -1.0873    0.0000 C   0  0  0  0  0  0  0  0  0  0  0  0
    3.6887   -0.9421    0.0000 C   0  0  0  0  0  0  0  0  0  0  0  0
    3.1569   -1.5728    0.0000 C   0  0  0  0  0  0  0  0  0  0  0  0
    2.3448   -1.4276    0.0000 C   0  0  0  0  0  0  0  0  0  0  0  0
    2.0645   -0.6516    0.0000 C   0  0  0  0  0  0  0  0  0  0  0  0
    7.4560   -2.0022    0.0000 C   0  0  0  0  0  0  0  0  0  0  0  0
    2.8803    0.7536    0.0000 C   0  0  0  0  0  0  0  0  0  0  0  0
    0.4539    0.3967    0.0000 H   0  0  0  0  0  0  0  0  0  0  0  0
    2.2548    1.1296    0.0000 H   0  0  0  0  0  0  0  0  0  0  0  0
    1.5143    1.1314    0.0000 H   0  0  0  0  0  0  0  0  0  0  0  0
    3.6599    1.2405    0.0000 H   0  0  0  0  0  0  0  0  0  0  0  0
    5.2841    0.9501    0.0000 H   0  0  0  0  0  0  0  0  0  0  0  0
    7.9548   -0.2781    0.0000 H   0  0  0  0  0  0  0  0  0  0  0  0
    3.0591   -2.3920    0.0000 H   0  0  0  0  0  0  0  0  0  0  0  0
    3.7556   -2.1404    0.0000 H   0  0  0  0  0  0  0  0  0  0  0  0
    1.5864   -1.7525    0.0000 H   0  0  0  0  0  0  0  0  0  0  0  0
    2.1526   -2.2299    0.0000 H   0  0  0  0  0  0  0  0  0  0  0  0
    1.4039   -0.1574    0.0000 H   0  0  0  0  0  0  0  0  0  0  0  0
    1.2735   -0.8863    0.0000 H   0  0  0  0  0  0  0  0  0  0  0  0
    6.8046   -2.5086    0.0000 H   0  0  0  0  0  0  0  0  0  0  0  0
    7.9623   -2.6536    0.0000 H   0  0  0  0  0  0  0  0  0  0  0  0
    8.1073   -1.4959    0.0000 H   0  0  0  0  0  0  0  0  0  0  0  0
    3.5208    0.2336    0.0000 H   0  0  0  0  0  0  0  0  0  0  0  0
    2.8733    1.5786    0.0000 H   0  0  0  0  0  0  0  0  0  0  0  0
    2.1023    0.4793    0.0000 H   0  0  0  0  0  0  0  0  0  0  0  0
  1  2  1  0  0  0  0
  2  3  1  0  0  0  0
  3  4  1  0  0  0  0
  4  5  4  0  0  0  0
  5  6  4  0  0  0  0
  6  7  4  0  0  0  0
  7  8  1  0  0  0  0
  8  9  4  0  0  0  0
  9 10  4  0  0  0  0
 10 11  4  0  0  0  0
 11 12  4  0  0  0  0
  8 12  4  0  0  0  0
 12 13  1  0  0  0  0
 13 14  2  0  0  0  0
 13 15  1  0  0  0  0
 15 16  2  0  0  0  0
 15 17  1  0  0  0  0
  7 17  4  0  0  0  0
 17 18  4  0  0  0  0
  4 18  4  0  0  0  0
 18 19  1  0  0  0  0
 19 20  1  0  0  0  0
 20 21  1  0  0  0  0
  3 21  1  0  0  0  0
 11 22  1  0  0  0  0
  3 23  1  0  0  0  0
  1 24  1  0  0  0  0
  2 25  1  0  0  0  0
  2 26  1  0  0  0  0
  5 27  1  0  0  0  0
  6 28  1  0  0  0  0
 10 29  1  0  0  0  0
 19 30  1  0  0  0  0
 19 31  1  0  0  0  0
 20 32  1  0  0  0  0
 20 33  1  0  0  0  0
 21 34  1  0  0  0  0
 21 35  1  0  0  0  0
 22 36  1  0  0  0  0
 22 37  1  0  0  0  0
 22 38  1  0  0  0  0
 23 39  1  0  0  0  0
 23 40  1  0  0  0  0
 23 41  1  0  0  0  0
M  END
> <Compound_name>
2

> <Standard Type>
IC50

> <Standard Relation>
'='

> <Standard Value>
25420.0

> <Standard Units>
nM

> <Outcome>
Inactive

> <InChIKey>
XDUXBBDRILEIEZ-UHFFFAOYNA-N

> <Molecule ChEMBL ID>
CHEMBL215254

$$$$

  Mrv1817 04132013512D          

 38 39  0  0  0  0            999 V2000
    0.7145   -2.0620    0.0000 N   0  0  0  0  0  0  0  0  0  0  0  0
    1.4289   -1.6495    0.0000 C   0  0  0  0  0  0  0  0  0  0  0  0
    1.4289   -0.8245    0.0000 O   0  0  0  0  0  0  0  0  0  0  0  0
    2.1434   -2.0620    0.0000 C   0  0  0  0  0  0  0  0  0  0  0  0
    2.8579   -1.6495    0.0000 S   0  0  0  0  0  0  0  0  0  0  0  0
    3.5724   -2.0620    0.0000 C   0  0  0  0  0  0  0  0  0  0  0  0
    4.2868   -1.6495    0.0000 N   0  0  0  0  0  0  0  0  0  0  0  0
    5.0013   -2.0620    0.0000 C   0  0  0  0  0  0  0  0  0  0  0  0
    5.7158   -1.6495    0.0000 O   0  0  0  0  0  0  0  0  0  0  0  0
    5.0013   -2.8870    0.0000 C   0  0  0  0  0  0  0  0  0  0  0  0
    4.2868   -3.2995    0.0000 C   0  0  0  0  0  0  0  0  0  0  0  0
    3.5724   -2.8870    0.0000 N   0  0  0  0  0  0  0  0  0  0  0  0
    4.2868   -4.1245    0.0000 C   0  0  0  0  0  0  0  0  0  0  0  0
    5.0013   -4.5370    0.0000 C   0  0  0  0  0  0  0  0  0  0  0  0
    5.0013   -5.3620    0.0000 C   0  0  0  0  0  0  0  0  0  0  0  0
   -0.0000   -1.6495    0.0000 C   0  0  0  0  0  0  0  0  0  0  0  0
   -0.7145   -2.0620    0.0000 C   0  0  0  0  0  0  0  0  0  0  0  0
   -1.4289   -1.6495    0.0000 C   0  0  0  0  0  0  0  0  0  0  0  0
   -1.4289   -0.8245    0.0000 C   0  0  0  0  0  0  0  0  0  0  0  0
   -2.1434   -0.4120    0.0000 Cl  0  0  0  0  0  0  0  0  0  0  0  0
   -0.7145   -0.4120    0.0000 C   0  0  0  0  0  0  0  0  0  0  0  0
   -0.0000   -0.8245    0.0000 C   0  0  0  0  0  0  0  0  0  0  0  0
    0.7145   -2.8870    0.0000 H   0  0  0  0  0  0  0  0  0  0  0  0
    1.7732   -2.7993    0.0000 H   0  0  0  0  0  0  0  0  0  0  0  0
    2.5137   -2.7993    0.0000 H   0  0  0  0  0  0  0  0  0  0  0  0
    5.7158   -3.2995    0.0000 H   0  0  0  0  0  0  0  0  0  0  0  0
    2.8579   -3.2995    0.0000 H   0  0  0  0  0  0  0  0  0  0  0  0
    3.4632   -4.1725    0.0000 H   0  0  0  0  0  0  0  0  0  0  0  0
    3.8335   -4.8138    0.0000 H   0  0  0  0  0  0  0  0  0  0  0  0
    5.8249   -4.4891    0.0000 H   0  0  0  0  0  0  0  0  0  0  0  0
    5.4546   -3.8478    0.0000 H   0  0  0  0  0  0  0  0  0  0  0  0
    4.1763   -5.3620    0.0000 H   0  0  0  0  0  0  0  0  0  0  0  0
    5.0013   -6.1870    0.0000 H   0  0  0  0  0  0  0  0  0  0  0  0
    5.8263   -5.3620    0.0000 H   0  0  0  0  0  0  0  0  0  0  0  0
   -0.7145   -2.8870    0.0000 H   0  0  0  0  0  0  0  0  0  0  0  0
   -2.1434   -2.0620    0.0000 H   0  0  0  0  0  0  0  0  0  0  0  0
   -0.7145    0.4130    0.0000 H   0  0  0  0  0  0  0  0  0  0  0  0
    0.7145   -0.4120    0.0000 H   0  0  0  0  0  0  0  0  0  0  0  0
  1  2  1  0  0  0  0
  2  3  2  0  0  0  0
  2  4  1  0  0  0  0
  4  5  1  0  0  0  0
  5  6  1  0  0  0  0
  6  7  2  0  0  0  0
  7  8  1  0  0  0  0
  8  9  2  0  0  0  0
  8 10  1  0  0  0  0
 10 11  2  0  0  0  0
 11 12  1  0  0  0  0
  6 12  1  0  0  0  0
 11 13  1  0  0  0  0
 13 14  1  0  0  0  0
 14 15  1  0  0  0  0
  1 16  1  0  0  0  0
 16 17  4  0  0  0  0
 17 18  4  0  0  0  0
 18 19  4  0  0  0  0
 19 20  1  0  0  0  0
 19 21  4  0  0  0  0
 21 22  4  0  0  0  0
 16 22  4  0  0  0  0
  1 23  1  0  0  0  0
  4 24  1  0  0  0  0
  4 25  1  0  0  0  0
 10 26  1  0  0  0  0
 12 27  1  0  0  0  0
 13 28  1  0  0  0  0
 13 29  1  0  0  0  0
 14 30  1  0  0  0  0
 14 31  1  0  0  0  0
 15 32  1  0  0  0  0
 15 33  1  0  0  0  0
 15 34  1  0  0  0  0
 17 35  1  0  0  0  0
 18 36  1  0  0  0  0
 21 37  1  0  0  0  0
 22 38  1  0  0  0  0
M  END
> <Compound_name>
9

> <Standard Type>
IC50

> <Standard Relation>
'='

> <Standard Value>
1.655655608912955E13

> <Standard Units>
nM

> <Outcome>
Inactive

> <InChIKey>
YBWHJLWKGZIQNQ-UHFFFAOYSA-N

> <Molecule ChEMBL ID>
CHEMBL208584

$$$$

  Mrv1817 04132013512D          

 43 46  0  0  0  0            999 V2000
    4.9839    0.6711    0.0000 C   0  0  0  0  0  0  0  0  0  0  0  0
    4.3011    1.1341    0.0000 O   0  0  0  0  0  0  0  0  0  0  0  0
    3.6498    0.6277    0.0000 C   0  0  0  0  0  0  0  0  0  0  0  0
    3.9301   -0.1482    0.0000 C   0  0  0  0  0  0  0  0  0  0  0  0
    4.7546   -0.1214    0.0000 C   0  0  0  0  0  0  0  0  0  0  0  0
    5.2610   -0.7727    0.0000 C   0  0  0  0  0  0  0  0  0  0  0  0
    3.3982   -0.7789    0.0000 C   0  0  0  0  0  0  0  0  0  0  0  0
    3.6785   -1.5548    0.0000 O   0  0  0  0  0  0  0  0  0  0  0  0
    2.5861   -0.6337    0.0000 C   0  0  0  0  0  0  0  0  0  0  0  0
    2.0543   -1.2644    0.0000 O   0  0  0  0  0  0  0  0  0  0  0  0
    2.3058    0.1423    0.0000 C   0  0  0  0  0  0  0  0  0  0  0  0
    2.8376    0.7730    0.0000 C   0  0  0  0  0  0  0  0  0  0  0  0
    2.5573    1.5489    0.0000 C   0  0  0  0  0  0  0  0  0  0  0  0
    1.7452    1.6941    0.0000 C   0  0  0  0  0  0  0  0  0  0  0  0
    1.2134    1.0634    0.0000 C   0  0  0  0  0  0  0  0  0  0  0  0
    1.4937    0.2875    0.0000 C   0  0  0  0  0  0  0  0  0  0  0  0
    0.9619   -0.3432    0.0000 C   0  0  0  0  0  0  0  0  0  0  0  0
    0.1498   -0.1980    0.0000 C   0  0  0  0  0  0  0  0  0  0  0  0
   -0.1305    0.5779    0.0000 C   0  0  0  0  0  0  0  0  0  0  0  0
    0.4013    1.2086    0.0000 C   0  0  0  0  0  0  0  0  0  0  0  0
   -0.2105    1.7621    0.0000 C   0  0  0  0  0  0  0  0  0  0  0  0
   -0.9957    1.5091    0.0000 O   0  0  0  0  0  0  0  0  0  0  0  0
   -0.0370    2.5687    0.0000 O   0  0  0  0  0  0  0  0  0  0  0  0
   -0.6488    3.1222    0.0000 C   0  0  0  0  0  0  0  0  0  0  0  0
    0.5181    2.0253    0.0000 C   0  0  0  0  0  0  0  0  0  0  0  0
    5.7599    0.9514    0.0000 H   0  0  0  0  0  0  0  0  0  0  0  0
    4.6096   -1.2791    0.0000 H   0  0  0  0  0  0  0  0  0  0  0  0
    5.7673   -1.4240    0.0000 H   0  0  0  0  0  0  0  0  0  0  0  0
    5.9123   -0.2663    0.0000 H   0  0  0  0  0  0  0  0  0  0  0  0
    3.0892    2.1796    0.0000 H   0  0  0  0  0  0  0  0  0  0  0  0
    1.4649    2.4700    0.0000 H   0  0  0  0  0  0  0  0  0  0  0  0
    0.8641   -1.1624    0.0000 H   0  0  0  0  0  0  0  0  0  0  0  0
    1.5606   -0.9108    0.0000 H   0  0  0  0  0  0  0  0  0  0  0  0
   -0.6086   -0.5230    0.0000 H   0  0  0  0  0  0  0  0  0  0  0  0
   -0.0424   -1.0003    0.0000 H   0  0  0  0  0  0  0  0  0  0  0  0
   -0.7911    1.0721    0.0000 H   0  0  0  0  0  0  0  0  0  0  0  0
   -0.9214    0.3432    0.0000 H   0  0  0  0  0  0  0  0  0  0  0  0
   -0.0953    3.7339    0.0000 H   0  0  0  0  0  0  0  0  0  0  0  0
   -1.2605    3.6757    0.0000 H   0  0  0  0  0  0  0  0  0  0  0  0
   -1.2023    2.5104    0.0000 H   0  0  0  0  0  0  0  0  0  0  0  0
    1.1528    1.4983    0.0000 H   0  0  0  0  0  0  0  0  0  0  0  0
    1.2993    2.2903    0.0000 H   0  0  0  0  0  0  0  0  0  0  0  0
    0.7012    2.8297    0.0000 H   0  0  0  0  0  0  0  0  0  0  0  0
  1  2  4  0  0  0  0
  2  3  4  0  0  0  0
  3  4  4  0  0  0  0
  4  5  4  0  0  0  0
  1  5  4  0  0  0  0
  5  6  1  0  0  0  0
  4  7  1  0  0  0  0
  7  8  2  0  0  0  0
  7  9  1  0  0  0  0
  9 10  2  0  0  0  0
  9 11  1  0  0  0  0
 11 12  4  0  0  0  0
  3 12  1  0  0  0  0
 12 13  4  0  0  0  0
 13 14  4  0  0  0  0
 14 15  4  0  0  0  0
 15 16  4  0  0  0  0
 11 16  4  0  0  0  0
 16 17  1  0  0  0  0
 17 18  1  0  0  0  0
 18 19  1  0  0  0  0
 19 20  1  0  0  0  0
 15 20  1  0  0  0  0
 20 21  1  0  0  0  0
 21 22  2  0  0  0  0
 21 23  1  0  0  0  0
 23 24  1  0  0  0  0
 20 25  1  0  0  0  0
  1 26  1  0  0  0  0
  6 27  1  0  0  0  0
  6 28  1  0  0  0  0
  6 29  1  0  0  0  0
 13 30  1  0  0  0  0
 14 31  1  0  0  0  0
 17 32  1  0  0  0  0
 17 33  1  0  0  0  0
 18 34  1  0  0  0  0
 18 35  1  0  0  0  0
 19 36  1  0  0  0  0
 19 37  1  0  0  0  0
 24 38  1  0  0  0  0
 24 39  1  0  0  0  0
 24 40  1  0  0  0  0
 25 41  1  0  0  0  0
 25 42  1  0  0  0  0
 25 43  1  0  0  0  0
M  END
> <Compound_name>
3

> <Standard Type>
IC50

> <Standard Relation>
'='

> <Standard Value>
12650.0

> <Standard Units>
nM

> <Outcome>
Inactive

> <InChIKey>
YFDKIHAZVQFLRC-UHFFFAOYNA-N

> <Molecule ChEMBL ID>
CHEMBL2146517

$$$$

  Mrv1817 04132013512D          

 91 93  0  0  0  0            999 V2000
    1.3563   -6.7420    0.0000 N   0  0  0  0  0  0  0  0  0  0  0  0
    1.6264   -7.5215    0.0000 C   0  0  0  0  0  0  0  0  0  0  0  0
    2.4365   -7.6774    0.0000 O   0  0  0  0  0  0  0  0  0  0  0  0
    1.0863   -8.1452    0.0000 C   0  0  0  0  0  0  0  0  0  0  0  0
    0.2762   -7.9893    0.0000 N   0  0  0  0  0  0  0  0  0  0  0  0
    0.0061   -7.2097    0.0000 C   0  0  0  0  0  0  0  0  0  0  0  0
    0.5462   -6.5861    0.0000 O   0  0  0  0  0  0  0  0  0  0  0  0
   -0.8040   -7.0538    0.0000 C   0  0  0  0  0  0  0  0  0  0  0  0
   -1.0741   -6.2743    0.0000 N   0  0  0  0  0  0  0  0  0  0  0  0
   -1.8842   -6.1183    0.0000 C   0  0  0  0  0  0  0  0  0  0  0  0
   -2.4243   -6.7420    0.0000 O   0  0  0  0  0  0  0  0  0  0  0  0
   -2.1542   -5.3388    0.0000 O   0  0  0  0  0  0  0  0  0  0  0  0
   -2.9644   -5.1829    0.0000 C   0  0  0  0  0  0  0  0  0  0  0  0
   -3.2344   -4.4033    0.0000 C   0  0  0  0  0  0  0  0  0  0  0  0
   -4.0445   -4.2474    0.0000 C   0  0  0  0  0  0  0  0  0  0  0  0
   -4.3146   -3.4679    0.0000 C   0  0  0  0  0  0  0  0  0  0  0  0
   -3.7745   -2.8442    0.0000 C   0  0  0  0  0  0  0  0  0  0  0  0
   -2.9644   -3.0001    0.0000 C   0  0  0  0  0  0  0  0  0  0  0  0
   -2.6943   -3.7797    0.0000 C   0  0  0  0  0  0  0  0  0  0  0  0
   -1.3441   -7.6774    0.0000 C   0  0  0  0  0  0  0  0  0  0  0  0
   -2.1542   -7.5215    0.0000 O   0  0  0  0  0  0  0  0  0  0  0  0
   -2.6943   -8.1452    0.0000 C   0  0  0  0  0  0  0  0  0  0  0  0
   -3.3180   -7.6051    0.0000 C   0  0  0  0  0  0  0  0  0  0  0  0
   -2.0707   -8.6853    0.0000 C   0  0  0  0  0  0  0  0  0  0  0  0
   -3.2344   -8.7688    0.0000 C   0  0  0  0  0  0  0  0  0  0  0  0
   -1.0741   -8.4570    0.0000 C   0  0  0  0  0  0  0  0  0  0  0  0
    1.3563   -8.9247    0.0000 C   0  0  0  0  0  0  0  0  0  0  0  0
    2.1665   -9.0806    0.0000 C   0  0  0  0  0  0  0  0  0  0  0  0
    2.7066   -8.4570    0.0000 C   0  0  0  0  0  0  0  0  0  0  0  0
    3.5167   -8.6129    0.0000 C   0  0  0  0  0  0  0  0  0  0  0  0
    3.7868   -9.3925    0.0000 C   0  0  0  0  0  0  0  0  0  0  0  0
    3.2467  -10.0161    0.0000 C   0  0  0  0  0  0  0  0  0  0  0  0
    2.4365   -9.8602    0.0000 C   0  0  0  0  0  0  0  0  0  0  0  0
    1.8964   -6.1183    0.0000 C   0  0  0  0  0  0  0  0  0  0  0  0
    2.7066   -6.2743    0.0000 C   0  0  0  0  0  0  0  0  0  0  0  0
    2.9766   -7.0538    0.0000 O   0  0  0  0  0  0  0  0  0  0  0  0
    1.6264   -5.3388    0.0000 C   0  0  0  0  0  0  0  0  0  0  0  0
    0.8163   -5.1829    0.0000 C   0  0  0  0  0  0  0  0  0  0  0  0
    0.4662   -4.4358    0.0000 C   0  0  0  0  0  0  0  0  0  0  0  0
    0.8648   -3.7135    0.0000 O   0  0  0  0  0  0  0  0  0  0  0  0
   -0.3525   -4.5379    0.0000 N   0  0  0  0  0  0  0  0  0  0  0  0
   -0.5084   -5.3480    0.0000 C   0  0  0  0  0  0  0  0  0  0  0  0
    0.2139   -5.7467    0.0000 C   0  0  0  0  0  0  0  0  0  0  0  0
    0.8163   -7.3656    0.0000 H   0  0  0  0  0  0  0  0  0  0  0  0
    1.8964   -8.3011    0.0000 H   0  0  0  0  0  0  0  0  0  0  0  0
   -0.2639   -8.6129    0.0000 H   0  0  0  0  0  0  0  0  0  0  0  0
   -0.2639   -6.4302    0.0000 H   0  0  0  0  0  0  0  0  0  0  0  0
   -0.9181   -5.4641    0.0000 H   0  0  0  0  0  0  0  0  0  0  0  0
   -3.7269   -5.4978    0.0000 H   0  0  0  0  0  0  0  0  0  0  0  0
   -3.1671   -5.9826    0.0000 H   0  0  0  0  0  0  0  0  0  0  0  0
   -4.5846   -4.8711    0.0000 H   0  0  0  0  0  0  0  0  0  0  0  0
   -5.1247   -3.3120    0.0000 H   0  0  0  0  0  0  0  0  0  0  0  0
   -4.0445   -2.0647    0.0000 H   0  0  0  0  0  0  0  0  0  0  0  0
   -2.4243   -2.3765    0.0000 H   0  0  0  0  0  0  0  0  0  0  0  0
   -1.8842   -3.9356    0.0000 H   0  0  0  0  0  0  0  0  0  0  0  0
   -1.6141   -6.8979    0.0000 H   0  0  0  0  0  0  0  0  0  0  0  0
   -2.7779   -6.9814    0.0000 H   0  0  0  0  0  0  0  0  0  0  0  0
   -3.9416   -7.0650    0.0000 H   0  0  0  0  0  0  0  0  0  0  0  0
   -3.8581   -8.2287    0.0000 H   0  0  0  0  0  0  0  0  0  0  0  0
   -2.6108   -9.3089    0.0000 H   0  0  0  0  0  0  0  0  0  0  0  0
   -1.4470   -9.2254    0.0000 H   0  0  0  0  0  0  0  0  0  0  0  0
   -1.5306   -8.0616    0.0000 H   0  0  0  0  0  0  0  0  0  0  0  0
   -4.0573   -8.8279    0.0000 H   0  0  0  0  0  0  0  0  0  0  0  0
   -3.7745   -9.3925    0.0000 H   0  0  0  0  0  0  0  0  0  0  0  0
   -3.1753   -9.5917    0.0000 H   0  0  0  0  0  0  0  0  0  0  0  0
   -0.7046   -9.1946    0.0000 H   0  0  0  0  0  0  0  0  0  0  0  0
   -0.5340   -7.8334    0.0000 H   0  0  0  0  0  0  0  0  0  0  0  0
   -1.8822   -8.6230    0.0000 H   0  0  0  0  0  0  0  0  0  0  0  0
    0.5938   -9.2396    0.0000 H   0  0  0  0  0  0  0  0  0  0  0  0
    1.1536   -9.7244    0.0000 H   0  0  0  0  0  0  0  0  0  0  0  0
    1.6264   -9.7043    0.0000 H   0  0  0  0  0  0  0  0  0  0  0  0
    3.2467   -7.8334    0.0000 H   0  0  0  0  0  0  0  0  0  0  0  0
    2.9766   -9.2366    0.0000 H   0  0  0  0  0  0  0  0  0  0  0  0
    4.3416   -8.6258    0.0000 H   0  0  0  0  0  0  0  0  0  0  0  0
    4.1569   -8.0925    0.0000 H   0  0  0  0  0  0  0  0  0  0  0  0
    4.2123  -10.0992    0.0000 H   0  0  0  0  0  0  0  0  0  0  0  0
    4.5721   -9.6452    0.0000 H   0  0  0  0  0  0  0  0  0  0  0  0
    2.8521  -10.7406    0.0000 H   0  0  0  0  0  0  0  0  0  0  0  0
    3.4288  -10.8207    0.0000 H   0  0  0  0  0  0  0  0  0  0  0  0
    2.0129  -10.5681    0.0000 H   0  0  0  0  0  0  0  0  0  0  0  0
    2.5671  -10.6748    0.0000 H   0  0  0  0  0  0  0  0  0  0  0  0
    2.1665   -6.8979    0.0000 H   0  0  0  0  0  0  0  0  0  0  0  0
    3.2467   -5.6506    0.0000 H   0  0  0  0  0  0  0  0  0  0  0  0
    2.3889   -5.0239    0.0000 H   0  0  0  0  0  0  0  0  0  0  0  0
    1.8291   -4.5391    0.0000 H   0  0  0  0  0  0  0  0  0  0  0  0
    1.0451   -5.9755    0.0000 H   0  0  0  0  0  0  0  0  0  0  0  0
   -0.9162   -3.9356    0.0000 H   0  0  0  0  0  0  0  0  0  0  0  0
   -0.6023   -6.1677    0.0000 H   0  0  0  0  0  0  0  0  0  0  0  0
   -1.1162   -4.7903    0.0000 H   0  0  0  0  0  0  0  0  0  0  0  0
    0.3699   -4.9365    0.0000 H   0  0  0  0  0  0  0  0  0  0  0  0
   -0.1361   -4.9996    0.0000 H   0  0  0  0  0  0  0  0  0  0  0  0
  1  2  1  0  0  0  0
  2  3  2  0  0  0  0
  2  4  1  0  0  0  0
  4  5  1  0  0  0  0
  5  6  1  0  0  0  0
  6  7  2  0  0  0  0
  6  8  1  0  0  0  0
  8  9  1  0  0  0  0
  9 10  1  0  0  0  0
 10 11  2  0  0  0  0
 10 12  1  0  0  0  0
 12 13  1  0  0  0  0
 13 14  1  0  0  0  0
 14 15  4  0  0  0  0
 15 16  4  0  0  0  0
 16 17  4  0  0  0  0
 17 18  4  0  0  0  0
 18 19  4  0  0  0  0
 14 19  4  0  0  0  0
  8 20  1  0  0  0  0
 20 21  1  0  0  0  0
 21 22  1  0  0  0  0
 22 23  1  0  0  0  0
 22 24  1  0  0  0  0
 22 25  1  0  0  0  0
 20 26  1  0  0  0  0
  4 27  1  0  0  0  0
 27 28  1  0  0  0  0
 28 29  1  0  0  0  0
 29 30  1  0  0  0  0
 30 31  1  0  0  0  0
 31 32  1  0  0  0  0
 32 33  1  0  0  0  0
 28 33  1  0  0  0  0
  1 34  1  0  0  0  0
 34 35  1  0  0  0  0
 35 36  2  0  0  0  0
 34 37  1  0  0  0  0
 37 38  1  0  0  0  0
 38 39  1  0  0  0  0
 39 40  2  0  0  0  0
 39 41  1  0  0  0  0
 41 42  1  0  0  0  0
 42 43  1  0  0  0  0
 38 43  1  0  0  0  0
  1 44  1  0  0  0  0
  4 45  1  0  0  0  0
  5 46  1  0  0  0  0
  8 47  1  0  0  0  0
  9 48  1  0  0  0  0
 13 49  1  0  0  0  0
 13 50  1  0  0  0  0
 15 51  1  0  0  0  0
 16 52  1  0  0  0  0
 17 53  1  0  0  0  0
 18 54  1  0  0  0  0
 19 55  1  0  0  0  0
 20 56  1  0  0  0  0
 23 57  1  0  0  0  0
 23 58  1  0  0  0  0
 23 59  1  0  0  0  0
 24 60  1  0  0  0  0
 24 61  1  0  0  0  0
 24 62  1  0  0  0  0
 25 63  1  0  0  0  0
 25 64  1  0  0  0  0
 25 65  1  0  0  0  0
 26 66  1  0  0  0  0
 26 67  1  0  0  0  0
 26 68  1  0  0  0  0
 27 69  1  0  0  0  0
 27 70  1  0  0  0  0
 28 71  1  0  0  0  0
 29 72  1  0  0  0  0
 29 73  1  0  0  0  0
 30 74  1  0  0  0  0
 30 75  1  0  0  0  0
 31 76  1  0  0  0  0
 31 77  1  0  0  0  0
 32 78  1  0  0  0  0
 32 79  1  0  0  0  0
 33 80  1  0  0  0  0
 33 81  1  0  0  0  0
 34 82  1  0  0  0  0
 35 83  1  0  0  0  0
 37 84  1  0  0  0  0
 37 85  1  0  0  0  0
 38 86  1  0  0  0  0
 41 87  1  0  0  0  0
 42 88  1  0  0  0  0
 42 89  1  0  0  0  0
 43 90  1  0  0  0  0
 43 91  1  0  0  0  0
M  END
> <Compound_name>
TG-0205221

> <Standard Type>
Ki

> <Standard Relation>
'='

> <Standard Value>
53.0

> <Standard Units>
nM

> <Outcome>
Active

> <InChIKey>
YFUZVOLEKQFVCQ-UHFFFAOYNA-N

> <Molecule ChEMBL ID>
CHEMBL213054

$$$$

  Mrv1817 04132013512D          

 43 44  0  0  0  0            999 V2000
    0.7375   -2.0633    0.0000 N   0  0  0  0  0  0  0  0  0  0  0  0
    1.4520   -1.6508    0.0000 C   0  0  0  0  0  0  0  0  0  0  0  0
    1.4520   -0.8258    0.0000 O   0  0  0  0  0  0  0  0  0  0  0  0
    2.1664   -2.0633    0.0000 C   0  0  0  0  0  0  0  0  0  0  0  0
    2.8809   -1.6508    0.0000 S   0  0  0  0  0  0  0  0  0  0  0  0
    3.5954   -2.0633    0.0000 C   0  0  0  0  0  0  0  0  0  0  0  0
    4.3098   -1.6508    0.0000 N   0  0  0  0  0  0  0  0  0  0  0  0
    5.0243   -2.0633    0.0000 C   0  0  0  0  0  0  0  0  0  0  0  0
    5.7388   -1.6508    0.0000 O   0  0  0  0  0  0  0  0  0  0  0  0
    5.0243   -2.8883    0.0000 C   0  0  0  0  0  0  0  0  0  0  0  0
    4.3098   -3.3008    0.0000 C   0  0  0  0  0  0  0  0  0  0  0  0
    3.5954   -2.8883    0.0000 N   0  0  0  0  0  0  0  0  0  0  0  0
    4.3098   -4.1258    0.0000 C   0  0  0  0  0  0  0  0  0  0  0  0
    5.0243   -4.5383    0.0000 O   0  0  0  0  0  0  0  0  0  0  0  0
    5.0243   -5.3633    0.0000 C   0  0  0  0  0  0  0  0  0  0  0  0
    3.5954   -4.5383    0.0000 O   0  0  0  0  0  0  0  0  0  0  0  0
    3.5954   -5.3633    0.0000 C   0  0  0  0  0  0  0  0  0  0  0  0
    0.0230   -1.6508    0.0000 C   0  0  0  0  0  0  0  0  0  0  0  0
   -0.6915   -2.0633    0.0000 C   0  0  0  0  0  0  0  0  0  0  0  0
   -1.4059   -1.6508    0.0000 C   0  0  0  0  0  0  0  0  0  0  0  0
   -1.4059   -0.8258    0.0000 C   0  0  0  0  0  0  0  0  0  0  0  0
   -0.6915   -0.4133    0.0000 C   0  0  0  0  0  0  0  0  0  0  0  0
    0.0230   -0.8258    0.0000 C   0  0  0  0  0  0  0  0  0  0  0  0
   -2.1204   -0.4133    0.0000 C   0  0  0  0  0  0  0  0  0  0  0  0
   -2.8349   -0.0008    0.0000 F   0  0  0  0  0  0  0  0  0  0  0  0
   -1.7079    0.3012    0.0000 F   0  0  0  0  0  0  0  0  0  0  0  0
   -2.5329   -1.1277    0.0000 F   0  0  0  0  0  0  0  0  0  0  0  0
    0.7375   -2.8883    0.0000 H   0  0  0  0  0  0  0  0  0  0  0  0
    1.7962   -2.8005    0.0000 H   0  0  0  0  0  0  0  0  0  0  0  0
    2.5367   -2.8005    0.0000 H   0  0  0  0  0  0  0  0  0  0  0  0
    5.7388   -3.3008    0.0000 H   0  0  0  0  0  0  0  0  0  0  0  0
    2.8809   -3.3008    0.0000 H   0  0  0  0  0  0  0  0  0  0  0  0
    5.0243   -3.7133    0.0000 H   0  0  0  0  0  0  0  0  0  0  0  0
    4.1993   -5.3633    0.0000 H   0  0  0  0  0  0  0  0  0  0  0  0
    5.0243   -6.1883    0.0000 H   0  0  0  0  0  0  0  0  0  0  0  0
    5.8493   -5.3633    0.0000 H   0  0  0  0  0  0  0  0  0  0  0  0
    2.8332   -5.0475    0.0000 H   0  0  0  0  0  0  0  0  0  0  0  0
    3.0120   -5.9466    0.0000 H   0  0  0  0  0  0  0  0  0  0  0  0
    3.9111   -6.1255    0.0000 H   0  0  0  0  0  0  0  0  0  0  0  0
   -0.6915   -2.8883    0.0000 H   0  0  0  0  0  0  0  0  0  0  0  0
   -2.1204   -2.0633    0.0000 H   0  0  0  0  0  0  0  0  0  0  0  0
   -0.6915    0.4117    0.0000 H   0  0  0  0  0  0  0  0  0  0  0  0
    0.7375   -0.4133    0.0000 H   0  0  0  0  0  0  0  0  0  0  0  0
  1  2  1  0  0  0  0
  2  3  2  0  0  0  0
  2  4  1  0  0  0  0
  4  5  1  0  0  0  0
  5  6  1  0  0  0  0
  6  7  2  0  0  0  0
  7  8  1  0  0  0  0
  8  9  2  0  0  0  0
  8 10  1  0  0  0  0
 10 11  2  0  0  0  0
 11 12  1  0  0  0  0
  6 12  1  0  0  0  0
 11 13  1  0  0  0  0
 13 14  1  0  0  0  0
 14 15  1  0  0  0  0
 13 16  1  0  0  0  0
 16 17  1  0  0  0  0
  1 18  1  0  0  0  0
 18 19  4  0  0  0  0
 19 20  4  0  0  0  0
 20 21  4  0  0  0  0
 21 22  4  0  0  0  0
 22 23  4  0  0  0  0
 18 23  4  0  0  0  0
 21 24  1  0  0  0  0
 24 25  1  0  0  0  0
 24 26  1  0  0  0  0
 24 27  1  0  0  0  0
  1 28  1  0  0  0  0
  4 29  1  0  0  0  0
  4 30  1  0  0  0  0
 10 31  1  0  0  0  0
 12 32  1  0  0  0  0
 13 33  1  0  0  0  0
 15 34  1  0  0  0  0
 15 35  1  0  0  0  0
 15 36  1  0  0  0  0
 17 37  1  0  0  0  0
 17 38  1  0  0  0  0
 17 39  1  0  0  0  0
 19 40  1  0  0  0  0
 20 41  1  0  0  0  0
 22 42  1  0  0  0  0
 23 43  1  0  0  0  0
M  END
> <Compound_name>
18

> <Standard Type>
IC50

> <Standard Relation>
'='

> <Standard Value>
2.44889419684223E12

> <Standard Units>
nM

> <Outcome>
Inactive

> <InChIKey>
ZCGRJMKKUYGRMN-UHFFFAOYSA-N

> <Molecule ChEMBL ID>
CHEMBL207484

$$$$

  Mrv1817 04132013512D          

 30 31  0  0  0  0            999 V2000
    0.7145   -2.0625    0.0000 C   0  0  0  0  0  0  0  0  0  0  0  0
    1.4289   -2.4750    0.0000 C   0  0  0  0  0  0  0  0  0  0  0  0
    1.4289   -3.3000    0.0000 C   0  0  0  0  0  0  0  0  0  0  0  0
    0.7145   -3.7125    0.0000 C   0  0  0  0  0  0  0  0  0  0  0  0
    0.0000   -3.3000    0.0000 C   0  0  0  0  0  0  0  0  0  0  0  0
    0.0000   -2.4750    0.0000 C   0  0  0  0  0  0  0  0  0  0  0  0
   -0.7145   -2.0625    0.0000 Cl  0  0  0  0  0  0  0  0  0  0  0  0
    2.1434   -3.7125    0.0000 S   0  0  0  0  0  0  0  0  0  0  0  0
    1.7309   -4.4270    0.0000 O   0  0  0  0  0  0  0  0  0  0  0  0
    2.5559   -2.9980    0.0000 O   0  0  0  0  0  0  0  0  0  0  0  0
    2.8579   -4.1250    0.0000 C   0  0  0  0  0  0  0  0  0  0  0  0
    3.5724   -3.7125    0.0000 C   0  0  0  0  0  0  0  0  0  0  0  0
    4.2868   -4.1250    0.0000 C   0  0  0  0  0  0  0  0  0  0  0  0
    4.2868   -4.9500    0.0000 C   0  0  0  0  0  0  0  0  0  0  0  0
    3.5724   -5.3625    0.0000 C   0  0  0  0  0  0  0  0  0  0  0  0
    2.8579   -4.9500    0.0000 C   0  0  0  0  0  0  0  0  0  0  0  0
    2.1434   -5.3625    0.0000 N   0  0  0  0  0  0  0  0  0  0  0  0
    1.4289   -4.9500    0.0000 O   0  0  0  0  0  0  0  0  0  0  0  0
    2.1434   -6.1875    0.0000 O   0  0  0  0  0  0  0  0  0  0  0  0
    5.0013   -5.3625    0.0000 C   0  0  0  0  0  0  0  0  0  0  0  0
    5.7158   -5.7750    0.0000 F   0  0  0  0  0  0  0  0  0  0  0  0
    4.5888   -6.0770    0.0000 F   0  0  0  0  0  0  0  0  0  0  0  0
    5.4138   -4.6480    0.0000 F   0  0  0  0  0  0  0  0  0  0  0  0
    0.7145   -1.2375    0.0000 H   0  0  0  0  0  0  0  0  0  0  0  0
    2.1434   -2.0625    0.0000 H   0  0  0  0  0  0  0  0  0  0  0  0
    0.7145   -4.5375    0.0000 H   0  0  0  0  0  0  0  0  0  0  0  0
   -0.7145   -3.7125    0.0000 H   0  0  0  0  0  0  0  0  0  0  0  0
    3.5724   -2.8875    0.0000 H   0  0  0  0  0  0  0  0  0  0  0  0
    5.0013   -3.7125    0.0000 H   0  0  0  0  0  0  0  0  0  0  0  0
    3.5724   -6.1875    0.0000 H   0  0  0  0  0  0  0  0  0  0  0  0
  1  2  4  0  0  0  0
  2  3  4  0  0  0  0
  3  4  4  0  0  0  0
  4  5  4  0  0  0  0
  5  6  4  0  0  0  0
  1  6  4  0  0  0  0
  6  7  1  0  0  0  0
  3  8  1  0  0  0  0
  8  9  2  0  0  0  0
  8 10  2  0  0  0  0
  8 11  1  0  0  0  0
 11 12  4  0  0  0  0
 12 13  4  0  0  0  0
 13 14  4  0  0  0  0
 14 15  4  0  0  0  0
 15 16  4  0  0  0  0
 11 16  4  0  0  0  0
 16 17  1  0  0  0  0
 17 18  2  0  0  0  0
 17 19  2  0  0  0  0
 14 20  1  0  0  0  0
 20 21  1  0  0  0  0
 20 22  1  0  0  0  0
 20 23  1  0  0  0  0
  1 24  1  0  0  0  0
  2 25  1  0  0  0  0
  4 26  1  0  0  0  0
  5 27  1  0  0  0  0
 12 28  1  0  0  0  0
 13 29  1  0  0  0  0
 15 30  1  0  0  0  0
M  END
> <Compound_name>
6

> <Standard Type>
IC50

> <Standard Relation>
'='

> <Standard Value>
12000.0

> <Standard Units>
nM

> <Outcome>
Inactive

> <InChIKey>
ZNNXTHUWLFOGRX-UHFFFAOYSA-N

> <Molecule ChEMBL ID>
CHEMBL380403

$$$$

  Mrv1817 04132013512D          

 29 31  0  0  0  0            999 V2000
    3.3180    1.2560    0.0000 C   0  0  0  0  0  0  0  0  0  0  0  0
    4.0325    0.8435    0.0000 C   0  0  0  0  0  0  0  0  0  0  0  0
    4.0325    0.0185    0.0000 C   0  0  0  0  0  0  0  0  0  0  0  0
    4.7469   -0.3940    0.0000 I   0  0  0  0  0  0  0  0  0  0  0  0
    3.3180   -0.3940    0.0000 C   0  0  0  0  0  0  0  0  0  0  0  0
    2.6035    0.0185    0.0000 C   0  0  0  0  0  0  0  0  0  0  0  0
    1.8189   -0.2365    0.0000 C   0  0  0  0  0  0  0  0  0  0  0  0
    1.5639   -1.0211    0.0000 O   0  0  0  0  0  0  0  0  0  0  0  0
    1.3340    0.4310    0.0000 C   0  0  0  0  0  0  0  0  0  0  0  0
    0.5090    0.4310    0.0000 O   0  0  0  0  0  0  0  0  0  0  0  0
    1.8189    1.0984    0.0000 N   0  0  0  0  0  0  0  0  0  0  0  0
    2.6035    0.8435    0.0000 C   0  0  0  0  0  0  0  0  0  0  0  0
    1.5639    1.8830    0.0000 C   0  0  0  0  0  0  0  0  0  0  0  0
    2.1160    2.4961    0.0000 C   0  0  0  0  0  0  0  0  0  0  0  0
    2.9230    2.3246    0.0000 C   0  0  0  0  0  0  0  0  0  0  0  0
    3.4750    2.9377    0.0000 C   0  0  0  0  0  0  0  0  0  0  0  0
    3.2200    3.7223    0.0000 C   0  0  0  0  0  0  0  0  0  0  0  0
    3.7721    4.3354    0.0000 F   0  0  0  0  0  0  0  0  0  0  0  0
    2.4131    3.8939    0.0000 C   0  0  0  0  0  0  0  0  0  0  0  0
    1.8610    3.2808    0.0000 C   0  0  0  0  0  0  0  0  0  0  0  0
    1.0541    3.4523    0.0000 Cl  0  0  0  0  0  0  0  0  0  0  0  0
    3.3180    2.0810    0.0000 H   0  0  0  0  0  0  0  0  0  0  0  0
    4.7469    1.2560    0.0000 H   0  0  0  0  0  0  0  0  0  0  0  0
    3.3180   -1.2190    0.0000 H   0  0  0  0  0  0  0  0  0  0  0  0
    0.9198    2.3985    0.0000 H   0  0  0  0  0  0  0  0  0  0  0  0
    0.7658    1.6742    0.0000 H   0  0  0  0  0  0  0  0  0  0  0  0
    2.6162    1.5588    0.0000 H   0  0  0  0  0  0  0  0  0  0  0  0
    4.2982    2.9925    0.0000 H   0  0  0  0  0  0  0  0  0  0  0  0
    2.1581    4.6785    0.0000 H   0  0  0  0  0  0  0  0  0  0  0  0
  1  2  4  0  0  0  0
  2  3  4  0  0  0  0
  3  4  1  0  0  0  0
  3  5  4  0  0  0  0
  5  6  4  0  0  0  0
  6  7  1  0  0  0  0
  7  8  2  0  0  0  0
  7  9  1  0  0  0  0
  9 10  2  0  0  0  0
  9 11  1  0  0  0  0
 11 12  1  0  0  0  0
  1 12  4  0  0  0  0
  6 12  4  0  0  0  0
 11 13  1  0  0  0  0
 13 14  1  0  0  0  0
 14 15  4  0  0  0  0
 15 16  4  0  0  0  0
 16 17  4  0  0  0  0
 17 18  1  0  0  0  0
 17 19  4  0  0  0  0
 19 20  4  0  0  0  0
 14 20  4  0  0  0  0
 20 21  1  0  0  0  0
  1 22  1  0  0  0  0
  2 23  1  0  0  0  0
  5 24  1  0  0  0  0
 13 25  1  0  0  0  0
 13 26  1  0  0  0  0
 15 27  1  0  0  0  0
 16 28  1  0  0  0  0
 19 29  1  0  0  0  0
M  END
> <Compound_name>
4c

> <Standard Type>
IC50

> <Standard Relation>
'='

> <Standard Value>
9400.0

> <Standard Units>
nM

> <Outcome>
Active

> <InChIKey>
ZRTPFLLKDJDNGZ-UHFFFAOYSA-N

> <Molecule ChEMBL ID>
CHEMBL188487

$$$$

  Mrv1817 04132013512D          

 43 45  0  0  0  0            999 V2000
   -2.8667   -4.1517    0.0000 N   0  0  0  0  0  0  0  0  0  0  0  0
   -2.1522   -3.7392    0.0000 C   0  0  0  0  0  0  0  0  0  0  0  0
   -2.1522   -2.9142    0.0000 O   0  0  0  0  0  0  0  0  0  0  0  0
   -1.4377   -4.1517    0.0000 C   0  0  0  0  0  0  0  0  0  0  0  0
   -0.7233   -3.7392    0.0000 S   0  0  0  0  0  0  0  0  0  0  0  0
   -0.0088   -4.1517    0.0000 C   0  0  0  0  0  0  0  0  0  0  0  0
    0.7057   -3.7392    0.0000 N   0  0  0  0  0  0  0  0  0  0  0  0
    1.4201   -4.1517    0.0000 C   0  0  0  0  0  0  0  0  0  0  0  0
    2.1346   -3.7392    0.0000 O   0  0  0  0  0  0  0  0  0  0  0  0
    1.4201   -4.9767    0.0000 C   0  0  0  0  0  0  0  0  0  0  0  0
    0.7057   -5.3892    0.0000 C   0  0  0  0  0  0  0  0  0  0  0  0
   -0.0088   -4.9767    0.0000 N   0  0  0  0  0  0  0  0  0  0  0  0
    0.7057   -6.2142    0.0000 C   0  0  0  0  0  0  0  0  0  0  0  0
   -3.5812   -3.7392    0.0000 C   0  0  0  0  0  0  0  0  0  0  0  0
   -4.2956   -4.1517    0.0000 C   0  0  0  0  0  0  0  0  0  0  0  0
   -5.0101   -3.7392    0.0000 C   0  0  0  0  0  0  0  0  0  0  0  0
   -5.0101   -2.9142    0.0000 C   0  0  0  0  0  0  0  0  0  0  0  0
   -5.7246   -2.5017    0.0000 O   0  0  0  0  0  0  0  0  0  0  0  0
   -6.4390   -2.9142    0.0000 C   0  0  0  0  0  0  0  0  0  0  0  0
   -6.4390   -3.7392    0.0000 C   0  0  0  0  0  0  0  0  0  0  0  0
   -7.1535   -4.1517    0.0000 C   0  0  0  0  0  0  0  0  0  0  0  0
   -7.8680   -3.7392    0.0000 C   0  0  0  0  0  0  0  0  0  0  0  0
   -8.5825   -4.1517    0.0000 Cl  0  0  0  0  0  0  0  0  0  0  0  0
   -7.8680   -2.9142    0.0000 C   0  0  0  0  0  0  0  0  0  0  0  0
   -7.1535   -2.5017    0.0000 C   0  0  0  0  0  0  0  0  0  0  0  0
   -4.2956   -2.5017    0.0000 C   0  0  0  0  0  0  0  0  0  0  0  0
   -3.5812   -2.9142    0.0000 C   0  0  0  0  0  0  0  0  0  0  0  0
   -2.8667   -4.9767    0.0000 H   0  0  0  0  0  0  0  0  0  0  0  0
   -1.8080   -4.8890    0.0000 H   0  0  0  0  0  0  0  0  0  0  0  0
   -1.0675   -4.8890    0.0000 H   0  0  0  0  0  0  0  0  0  0  0  0
    2.1346   -5.3892    0.0000 H   0  0  0  0  0  0  0  0  0  0  0  0
   -0.7233   -5.3892    0.0000 H   0  0  0  0  0  0  0  0  0  0  0  0
   -0.1193   -6.2142    0.0000 H   0  0  0  0  0  0  0  0  0  0  0  0
    0.7057   -7.0392    0.0000 H   0  0  0  0  0  0  0  0  0  0  0  0
    1.5307   -6.2142    0.0000 H   0  0  0  0  0  0  0  0  0  0  0  0
   -4.2956   -4.9767    0.0000 H   0  0  0  0  0  0  0  0  0  0  0  0
   -5.7246   -4.1517    0.0000 H   0  0  0  0  0  0  0  0  0  0  0  0
   -5.7246   -3.3267    0.0000 H   0  0  0  0  0  0  0  0  0  0  0  0
   -7.1535   -4.9767    0.0000 H   0  0  0  0  0  0  0  0  0  0  0  0
   -8.5825   -2.5017    0.0000 H   0  0  0  0  0  0  0  0  0  0  0  0
   -7.1535   -1.6767    0.0000 H   0  0  0  0  0  0  0  0  0  0  0  0
   -4.2956   -1.6767    0.0000 H   0  0  0  0  0  0  0  0  0  0  0  0
   -2.8667   -2.5017    0.0000 H   0  0  0  0  0  0  0  0  0  0  0  0
  1  2  1  0  0  0  0
  2  3  2  0  0  0  0
  2  4  1  0  0  0  0
  4  5  1  0  0  0  0
  5  6  1  0  0  0  0
  6  7  2  0  0  0  0
  7  8  1  0  0  0  0
  8  9  2  0  0  0  0
  8 10  1  0  0  0  0
 10 11  2  0  0  0  0
 11 12  1  0  0  0  0
  6 12  1  0  0  0  0
 11 13  1  0  0  0  0
  1 14  1  0  0  0  0
 14 15  4  0  0  0  0
 15 16  4  0  0  0  0
 16 17  4  0  0  0  0
 17 18  1  0  0  0  0
 18 19  1  0  0  0  0
 19 20  4  0  0  0  0
 20 21  4  0  0  0  0
 21 22  4  0  0  0  0
 22 23  1  0  0  0  0
 22 24  4  0  0  0  0
 24 25  4  0  0  0  0
 19 25  4  0  0  0  0
 17 26  4  0  0  0  0
 26 27  4  0  0  0  0
 14 27  4  0  0  0  0
  1 28  1  0  0  0  0
  4 29  1  0  0  0  0
  4 30  1  0  0  0  0
 10 31  1  0  0  0  0
 12 32  1  0  0  0  0
 13 33  1  0  0  0  0
 13 34  1  0  0  0  0
 13 35  1  0  0  0  0
 15 36  1  0  0  0  0
 16 37  1  0  0  0  0
 20 38  1  0  0  0  0
 21 39  1  0  0  0  0
 24 40  1  0  0  0  0
 25 41  1  0  0  0  0
 26 42  1  0  0  0  0
 27 43  1  0  0  0  0
M  END
> <Compound_name>
16

> <Standard Type>
IC50

> <Standard Relation>
'='

> <Standard Value>
2.44889419684223E12

> <Standard Units>
nM

> <Outcome>
Inactive

> <InChIKey>
ZUEMNPRILMWAIX-UHFFFAOYSA-N

> <Molecule ChEMBL ID>
CHEMBL210511

$$$$
