
  Mrv1817 03252020182D          

 36 35  0  0  0  0            999 V2000
   -0.1127   -3.1046    0.0000 C   0  0  0  0  0  0  0  0  0  0  0  0
    0.6974   -2.9487    0.0000 C   0  0  0  0  0  0  0  0  0  0  0  0
    1.2375   -3.5724    0.0000 N   0  0  0  0  0  0  0  0  0  0  0  0
    0.9675   -4.3519    0.0000 C   0  0  0  0  0  0  0  0  0  0  0  0
    0.1573   -4.5078    0.0000 C   0  0  0  0  0  0  0  0  0  0  0  0
    2.0476   -3.4164    0.0000 C   0  0  0  0  0  0  0  0  0  0  0  0
    2.3177   -2.6369    0.0000 S   0  0  0  0  0  0  0  0  0  0  0  0
    2.5877   -4.0401    0.0000 S   0  0  0  0  0  0  0  0  0  0  0  0
    3.3979   -3.8842    0.0000 S   0  0  0  0  0  0  0  0  0  0  0  0
    3.9379   -4.5078    0.0000 C   0  0  0  0  0  0  0  0  0  0  0  0
    3.6679   -5.2874    0.0000 S   0  0  0  0  0  0  0  0  0  0  0  0
    4.7481   -4.3519    0.0000 N   0  0  0  0  0  0  0  0  0  0  0  0
    5.2882   -4.9755    0.0000 C   0  0  0  0  0  0  0  0  0  0  0  0
    6.0983   -4.8196    0.0000 C   0  0  0  0  0  0  0  0  0  0  0  0
    5.0181   -3.5724    0.0000 C   0  0  0  0  0  0  0  0  0  0  0  0
    5.8283   -3.4164    0.0000 C   0  0  0  0  0  0  0  0  0  0  0  0
   -0.2686   -2.2945    0.0000 H   0  0  0  0  0  0  0  0  0  0  0  0
   -0.9229   -3.2605    0.0000 H   0  0  0  0  0  0  0  0  0  0  0  0
    0.0432   -3.9148    0.0000 H   0  0  0  0  0  0  0  0  0  0  0  0
    1.2886   -2.3733    0.0000 H   0  0  0  0  0  0  0  0  0  0  0  0
    0.5889   -2.1309    0.0000 H   0  0  0  0  0  0  0  0  0  0  0  0
    1.1702   -5.1516    0.0000 H   0  0  0  0  0  0  0  0  0  0  0  0
    1.7300   -4.6668    0.0000 H   0  0  0  0  0  0  0  0  0  0  0  0
   -0.6508   -4.3418    0.0000 H   0  0  0  0  0  0  0  0  0  0  0  0
   -0.3053   -5.1909    0.0000 H   0  0  0  0  0  0  0  0  0  0  0  0
    0.6114   -5.1966    0.0000 H   0  0  0  0  0  0  0  0  0  0  0  0
    4.6970   -5.5510    0.0000 H   0  0  0  0  0  0  0  0  0  0  0  0
    5.3967   -5.7934    0.0000 H   0  0  0  0  0  0  0  0  0  0  0  0
    6.2542   -5.6298    0.0000 H   0  0  0  0  0  0  0  0  0  0  0  0
    6.9084   -4.6637    0.0000 H   0  0  0  0  0  0  0  0  0  0  0  0
    5.9424   -4.0095    0.0000 H   0  0  0  0  0  0  0  0  0  0  0  0
    4.8154   -2.7727    0.0000 H   0  0  0  0  0  0  0  0  0  0  0  0
    4.2556   -3.2574    0.0000 H   0  0  0  0  0  0  0  0  0  0  0  0
    6.6364   -3.5824    0.0000 H   0  0  0  0  0  0  0  0  0  0  0  0
    6.2909   -2.7333    0.0000 H   0  0  0  0  0  0  0  0  0  0  0  0
    5.3742   -2.7276    0.0000 H   0  0  0  0  0  0  0  0  0  0  0  0
  1  2  1  0  0  0  0
  2  3  1  0  0  0  0
  3  4  1  0  0  0  0
  4  5  1  0  0  0  0
  3  6  1  0  0  0  0
  6  7  2  0  0  0  0
  6  8  1  0  0  0  0
  8  9  1  0  0  0  0
  9 10  1  0  0  0  0
 10 11  2  0  0  0  0
 10 12  1  0  0  0  0
 12 13  1  0  0  0  0
 13 14  1  0  0  0  0
 12 15  1  0  0  0  0
 15 16  1  0  0  0  0
  1 17  1  0  0  0  0
  1 18  1  0  0  0  0
  1 19  1  0  0  0  0
  2 20  1  0  0  0  0
  2 21  1  0  0  0  0
  4 22  1  0  0  0  0
  4 23  1  0  0  0  0
  5 24  1  0  0  0  0
  5 25  1  0  0  0  0
  5 26  1  0  0  0  0
 13 27  1  0  0  0  0
 13 28  1  0  0  0  0
 14 29  1  0  0  0  0
 14 30  1  0  0  0  0
 14 31  1  0  0  0  0
 15 32  1  0  0  0  0
 15 33  1  0  0  0  0
 16 34  1  0  0  0  0
 16 35  1  0  0  0  0
 16 36  1  0  0  0  0
M  END
> <Compound_name>
disulfiram

> <DRUGBANK_ID>
DB00822

$$$$

  Mrv1817 03252020182D          

 34 34  0  0  0  0            999 V2000
    2.1434   -5.3625    0.0000 C   0  0  0  0  0  0  0  0  0  0  0  0
    2.8579   -4.9500    0.0000 C   0  0  0  0  0  0  0  0  0  0  0  0
    3.5724   -5.3625    0.0000 C   0  0  0  0  0  0  0  0  0  0  0  0
    4.2868   -4.9500    0.0000 C   0  0  0  0  0  0  0  0  0  0  0  0
    5.0013   -5.3625    0.0000 C   0  0  0  0  0  0  0  0  0  0  0  0
    5.7158   -4.9500    0.0000 C   0  0  0  0  0  0  0  0  0  0  0  0
    6.4302   -5.3625    0.0000 N   0  0  0  0  0  0  0  0  0  0  0  0
    7.1447   -4.9500    0.0000 C   0  0  0  0  0  0  0  0  0  0  0  0
    7.1447   -4.1250    0.0000 O   0  0  0  0  0  0  0  0  0  0  0  0
    7.8592   -5.3625    0.0000 N   0  0  0  0  0  0  0  0  0  0  0  0
    8.5737   -4.9500    0.0000 C   0  0  0  0  0  0  0  0  0  0  0  0
    9.2881   -5.3625    0.0000 C   0  0  0  0  0  0  0  0  0  0  0  0
   10.0026   -4.9500    0.0000 F   0  0  0  0  0  0  0  0  0  0  0  0
    9.2881   -6.1875    0.0000 C   0  0  0  0  0  0  0  0  0  0  0  0
   10.0026   -6.6000    0.0000 O   0  0  0  0  0  0  0  0  0  0  0  0
    8.5737   -6.6000    0.0000 N   0  0  0  0  0  0  0  0  0  0  0  0
    7.8592   -6.1875    0.0000 C   0  0  0  0  0  0  0  0  0  0  0  0
    7.1447   -6.6000    0.0000 O   0  0  0  0  0  0  0  0  0  0  0  0
    1.7309   -4.6480    0.0000 H   0  0  0  0  0  0  0  0  0  0  0  0
    1.4289   -5.7750    0.0000 H   0  0  0  0  0  0  0  0  0  0  0  0
    2.5559   -6.0770    0.0000 H   0  0  0  0  0  0  0  0  0  0  0  0
    3.2281   -4.2128    0.0000 H   0  0  0  0  0  0  0  0  0  0  0  0
    2.4876   -4.2128    0.0000 H   0  0  0  0  0  0  0  0  0  0  0  0
    3.2021   -6.0997    0.0000 H   0  0  0  0  0  0  0  0  0  0  0  0
    3.9426   -6.0997    0.0000 H   0  0  0  0  0  0  0  0  0  0  0  0
    4.6571   -4.2128    0.0000 H   0  0  0  0  0  0  0  0  0  0  0  0
    3.9166   -4.2128    0.0000 H   0  0  0  0  0  0  0  0  0  0  0  0
    4.6310   -6.0997    0.0000 H   0  0  0  0  0  0  0  0  0  0  0  0
    5.3716   -6.0997    0.0000 H   0  0  0  0  0  0  0  0  0  0  0  0
    6.0860   -4.2128    0.0000 H   0  0  0  0  0  0  0  0  0  0  0  0
    5.3455   -4.2128    0.0000 H   0  0  0  0  0  0  0  0  0  0  0  0
    6.4302   -6.1875    0.0000 H   0  0  0  0  0  0  0  0  0  0  0  0
    8.5737   -4.1250    0.0000 H   0  0  0  0  0  0  0  0  0  0  0  0
    8.5737   -7.4250    0.0000 H   0  0  0  0  0  0  0  0  0  0  0  0
  1  2  1  0  0  0  0
  2  3  1  0  0  0  0
  3  4  1  0  0  0  0
  4  5  1  0  0  0  0
  5  6  1  0  0  0  0
  6  7  1  0  0  0  0
  7  8  1  0  0  0  0
  8  9  2  0  0  0  0
  8 10  1  0  0  0  0
 10 11  1  0  0  0  0
 11 12  2  0  0  0  0
 12 13  1  0  0  0  0
 12 14  1  0  0  0  0
 14 15  2  0  0  0  0
 14 16  1  0  0  0  0
 16 17  1  0  0  0  0
 10 17  1  0  0  0  0
 17 18  2  0  0  0  0
  1 19  1  0  0  0  0
  1 20  1  0  0  0  0
  1 21  1  0  0  0  0
  2 22  1  0  0  0  0
  2 23  1  0  0  0  0
  3 24  1  0  0  0  0
  3 25  1  0  0  0  0
  4 26  1  0  0  0  0
  4 27  1  0  0  0  0
  5 28  1  0  0  0  0
  5 29  1  0  0  0  0
  6 30  1  0  0  0  0
  6 31  1  0  0  0  0
  7 32  1  0  0  0  0
 11 33  1  0  0  0  0
 16 34  1  0  0  0  0
M  END
> <Compound_name>
carmofur

> <DRUGBANK_ID>
DB09010

$$$$

  Mrv1817 03252020182D          

 25 27  0  0  0  0            999 V2000
    0.8838   -2.1500    0.0000 O   0  0  0  0  0  0  0  0  0  0  0  0
    1.1387   -1.3654    0.0000 C   0  0  0  0  0  0  0  0  0  0  0  0
    0.6538   -0.6979    0.0000 N   0  0  0  0  0  0  0  0  0  0  0  0
    1.1387   -0.0305    0.0000 Se  0  0  0  0  0  0  0  0  0  0  0  0
    1.9233   -0.2854    0.0000 C   0  0  0  0  0  0  0  0  0  0  0  0
    2.6378    0.1271    0.0000 C   0  0  0  0  0  0  0  0  0  0  0  0
    3.3523   -0.2854    0.0000 C   0  0  0  0  0  0  0  0  0  0  0  0
    3.3523   -1.1104    0.0000 C   0  0  0  0  0  0  0  0  0  0  0  0
    2.6378   -1.5229    0.0000 C   0  0  0  0  0  0  0  0  0  0  0  0
    1.9233   -1.1104    0.0000 C   0  0  0  0  0  0  0  0  0  0  0  0
   -0.1712   -0.6979    0.0000 C   0  0  0  0  0  0  0  0  0  0  0  0
   -0.5837   -1.4124    0.0000 C   0  0  0  0  0  0  0  0  0  0  0  0
   -1.4087   -1.4124    0.0000 C   0  0  0  0  0  0  0  0  0  0  0  0
   -1.8212   -0.6979    0.0000 C   0  0  0  0  0  0  0  0  0  0  0  0
   -1.4087    0.0165    0.0000 C   0  0  0  0  0  0  0  0  0  0  0  0
   -0.5837    0.0165    0.0000 C   0  0  0  0  0  0  0  0  0  0  0  0
    2.6378    0.9521    0.0000 H   0  0  0  0  0  0  0  0  0  0  0  0
    4.0668    0.1271    0.0000 H   0  0  0  0  0  0  0  0  0  0  0  0
    4.0668   -1.5229    0.0000 H   0  0  0  0  0  0  0  0  0  0  0  0
    2.6378   -2.3479    0.0000 H   0  0  0  0  0  0  0  0  0  0  0  0
   -0.1712   -2.1269    0.0000 H   0  0  0  0  0  0  0  0  0  0  0  0
   -1.8212   -2.1269    0.0000 H   0  0  0  0  0  0  0  0  0  0  0  0
   -2.6462   -0.6979    0.0000 H   0  0  0  0  0  0  0  0  0  0  0  0
   -1.8212    0.7310    0.0000 H   0  0  0  0  0  0  0  0  0  0  0  0
   -0.1712    0.7310    0.0000 H   0  0  0  0  0  0  0  0  0  0  0  0
  1  2  2  0  0  0  0
  2  3  1  0  0  0  0
  3  4  1  0  0  0  0
  4  5  1  0  0  0  0
  5  6  4  0  0  0  0
  6  7  4  0  0  0  0
  7  8  4  0  0  0  0
  8  9  4  0  0  0  0
  9 10  4  0  0  0  0
  2 10  1  0  0  0  0
  5 10  4  0  0  0  0
  3 11  1  0  0  0  0
 11 12  4  0  0  0  0
 12 13  4  0  0  0  0
 13 14  4  0  0  0  0
 14 15  4  0  0  0  0
 15 16  4  0  0  0  0
 11 16  4  0  0  0  0
  6 17  1  0  0  0  0
  7 18  1  0  0  0  0
  8 19  1  0  0  0  0
  9 20  1  0  0  0  0
 12 21  1  0  0  0  0
 13 22  1  0  0  0  0
 14 23  1  0  0  0  0
 15 24  1  0  0  0  0
 16 25  1  0  0  0  0
M  END
> <Compound_name>
ebselen

> <DRUGBANK_ID>
DB12610

$$$$

  Mrv1817 03252020182D          

 37 38  0  0  0  0            999 V2000
   -2.1434   -2.8875    0.0000 C   0  0  0  0  0  0  0  0  0  0  0  0
   -1.4289   -2.4750    0.0000 C   0  0  0  0  0  0  0  0  0  0  0  0
   -1.4289   -1.6500    0.0000 C   0  0  0  0  0  0  0  0  0  0  0  0
   -0.7145   -2.8875    0.0000 C   0  0  0  0  0  0  0  0  0  0  0  0
    0.0000   -2.4750    0.0000 C   0  0  0  0  0  0  0  0  0  0  0  0
    0.0000   -1.6500    0.0000 C   0  0  0  0  0  0  0  0  0  0  0  0
   -0.7145   -1.2375    0.0000 O   0  0  0  0  0  0  0  0  0  0  0  0
    0.7145   -1.2375    0.0000 C   0  0  0  0  0  0  0  0  0  0  0  0
    0.7145   -0.4125    0.0000 C   0  0  0  0  0  0  0  0  0  0  0  0
    1.4289    0.0000    0.0000 C   0  0  0  0  0  0  0  0  0  0  0  0
    1.4289    0.8250    0.0000 O   0  0  0  0  0  0  0  0  0  0  0  0
    2.1434   -0.4125    0.0000 C   0  0  0  0  0  0  0  0  0  0  0  0
    2.8579    0.0000    0.0000 C   0  0  0  0  0  0  0  0  0  0  0  0
    2.8579    0.8250    0.0000 O   0  0  0  0  0  0  0  0  0  0  0  0
    3.5724   -0.4125    0.0000 C   0  0  0  0  0  0  0  0  0  0  0  0
    3.5724   -1.2375    0.0000 C   0  0  0  0  0  0  0  0  0  0  0  0
    2.8579   -1.6500    0.0000 C   0  0  0  0  0  0  0  0  0  0  0  0
    2.8579   -2.4750    0.0000 O   0  0  0  0  0  0  0  0  0  0  0  0
    2.1434   -1.2375    0.0000 C   0  0  0  0  0  0  0  0  0  0  0  0
    1.4289   -1.6500    0.0000 C   0  0  0  0  0  0  0  0  0  0  0  0
    1.4289   -2.4750    0.0000 O   0  0  0  0  0  0  0  0  0  0  0  0
   -2.5559   -2.1730    0.0000 H   0  0  0  0  0  0  0  0  0  0  0  0
   -2.8579   -3.3000    0.0000 H   0  0  0  0  0  0  0  0  0  0  0  0
   -1.7309   -3.6020    0.0000 H   0  0  0  0  0  0  0  0  0  0  0  0
   -1.4289   -0.8250    0.0000 H   0  0  0  0  0  0  0  0  0  0  0  0
   -2.1434   -1.2375    0.0000 H   0  0  0  0  0  0  0  0  0  0  0  0
   -2.1434   -2.0625    0.0000 H   0  0  0  0  0  0  0  0  0  0  0  0
   -0.7145   -3.7125    0.0000 H   0  0  0  0  0  0  0  0  0  0  0  0
    0.4533   -3.1643    0.0000 H   0  0  0  0  0  0  0  0  0  0  0  0
    0.8236   -2.5230    0.0000 H   0  0  0  0  0  0  0  0  0  0  0  0
   -0.7145   -2.0625    0.0000 H   0  0  0  0  0  0  0  0  0  0  0  0
   -0.3020   -0.5230    0.0000 H   0  0  0  0  0  0  0  0  0  0  0  0
    0.0000    0.0000    0.0000 H   0  0  0  0  0  0  0  0  0  0  0  0
    3.5724    1.2375    0.0000 H   0  0  0  0  0  0  0  0  0  0  0  0
    4.2868   -0.0000    0.0000 H   0  0  0  0  0  0  0  0  0  0  0  0
    4.2868   -1.6500    0.0000 H   0  0  0  0  0  0  0  0  0  0  0  0
    2.1434   -2.8875    0.0000 H   0  0  0  0  0  0  0  0  0  0  0  0
  1  2  1  0  0  0  0
  2  3  1  0  0  0  0
  2  4  2  0  0  0  0
  4  5  1  0  0  0  0
  5  6  1  0  0  0  0
  6  7  1  0  0  0  0
  6  8  1  0  0  0  0
  8  9  2  0  0  0  0
  9 10  1  0  0  0  0
 10 11  2  0  0  0  0
 10 12  1  0  0  0  0
 12 13  4  0  0  0  0
 13 14  1  0  0  0  0
 13 15  4  0  0  0  0
 15 16  4  0  0  0  0
 16 17  4  0  0  0  0
 17 18  1  0  0  0  0
 17 19  4  0  0  0  0
 12 19  4  0  0  0  0
 19 20  1  0  0  0  0
  8 20  1  0  0  0  0
 20 21  2  0  0  0  0
  1 22  1  0  0  0  0
  1 23  1  0  0  0  0
  1 24  1  0  0  0  0
  3 25  1  0  0  0  0
  3 26  1  0  0  0  0
  3 27  1  0  0  0  0
  4 28  1  0  0  0  0
  5 29  1  0  0  0  0
  5 30  1  0  0  0  0
  6 31  1  0  0  0  0
  7 32  1  0  0  0  0
  9 33  1  0  0  0  0
 14 34  1  0  0  0  0
 15 35  1  0  0  0  0
 16 36  1  0  0  0  0
 18 37  1  0  0  0  0
M  END
> <Compound_name>
shikonin

> <DRUGBANK_ID>


$$$$

  Mrv1817 03252020182D          

 38 41  0  0  0  0            999 V2000
    2.3264    2.7620    0.0000 O   0  0  0  0  0  0  0  0  0  0  0  0
    1.8414    2.0945    0.0000 C   0  0  0  0  0  0  0  0  0  0  0  0
    2.0964    1.3099    0.0000 S   0  0  0  0  0  0  0  0  0  0  0  0
    1.4289    0.8250    0.0000 N   0  0  0  0  0  0  0  0  0  0  0  0
    0.7615    1.3099    0.0000 C   0  0  0  0  0  0  0  0  0  0  0  0
   -0.0231    1.0550    0.0000 O   0  0  0  0  0  0  0  0  0  0  0  0
    1.0164    2.0945    0.0000 N   0  0  0  0  0  0  0  0  0  0  0  0
    0.5315    2.7620    0.0000 C   0  0  0  0  0  0  0  0  0  0  0  0
    0.8671    3.5157    0.0000 C   0  0  0  0  0  0  0  0  0  0  0  0
    0.3822    4.1831    0.0000 C   0  0  0  0  0  0  0  0  0  0  0  0
    0.7177    4.9368    0.0000 C   0  0  0  0  0  0  0  0  0  0  0  0
    1.5382    5.0230    0.0000 C   0  0  0  0  0  0  0  0  0  0  0  0
    2.0231    4.3556    0.0000 C   0  0  0  0  0  0  0  0  0  0  0  0
    1.6876    3.6019    0.0000 C   0  0  0  0  0  0  0  0  0  0  0  0
    1.4289    0.0000    0.0000 C   0  0  0  0  0  0  0  0  0  0  0  0
    2.1434   -0.4125    0.0000 C   0  0  0  0  0  0  0  0  0  0  0  0
    2.8579    0.0000    0.0000 C   0  0  0  0  0  0  0  0  0  0  0  0
    3.5724   -0.4125    0.0000 C   0  0  0  0  0  0  0  0  0  0  0  0
    3.5724   -1.2375    0.0000 C   0  0  0  0  0  0  0  0  0  0  0  0
    2.8579   -1.6500    0.0000 C   0  0  0  0  0  0  0  0  0  0  0  0
    2.1434   -1.2375    0.0000 C   0  0  0  0  0  0  0  0  0  0  0  0
    1.4289   -1.6500    0.0000 C   0  0  0  0  0  0  0  0  0  0  0  0
    0.7145   -1.2375    0.0000 C   0  0  0  0  0  0  0  0  0  0  0  0
    0.7145   -0.4125    0.0000 C   0  0  0  0  0  0  0  0  0  0  0  0
   -0.2404    3.0532    0.0000 H   0  0  0  0  0  0  0  0  0  0  0  0
   -0.1630    2.3167    0.0000 H   0  0  0  0  0  0  0  0  0  0  0  0
   -0.4383    4.0969    0.0000 H   0  0  0  0  0  0  0  0  0  0  0  0
    0.2328    5.6042    0.0000 H   0  0  0  0  0  0  0  0  0  0  0  0
    1.8738    5.7767    0.0000 H   0  0  0  0  0  0  0  0  0  0  0  0
    2.8436    4.4418    0.0000 H   0  0  0  0  0  0  0  0  0  0  0  0
    2.1725    2.9345    0.0000 H   0  0  0  0  0  0  0  0  0  0  0  0
    2.8579    0.8250    0.0000 H   0  0  0  0  0  0  0  0  0  0  0  0
    4.2868   -0.0000    0.0000 H   0  0  0  0  0  0  0  0  0  0  0  0
    4.2868   -1.6500    0.0000 H   0  0  0  0  0  0  0  0  0  0  0  0
    2.8579   -2.4750    0.0000 H   0  0  0  0  0  0  0  0  0  0  0  0
    1.4289   -2.4750    0.0000 H   0  0  0  0  0  0  0  0  0  0  0  0
    0.0000   -1.6500    0.0000 H   0  0  0  0  0  0  0  0  0  0  0  0
    0.0000   -0.0000    0.0000 H   0  0  0  0  0  0  0  0  0  0  0  0
  1  2  2  0  0  0  0
  2  3  1  0  0  0  0
  3  4  1  0  0  0  0
  4  5  1  0  0  0  0
  5  6  2  0  0  0  0
  5  7  1  0  0  0  0
  2  7  1  0  0  0  0
  7  8  1  0  0  0  0
  8  9  1  0  0  0  0
  9 10  4  0  0  0  0
 10 11  4  0  0  0  0
 11 12  4  0  0  0  0
 12 13  4  0  0  0  0
 13 14  4  0  0  0  0
  9 14  4  0  0  0  0
  4 15  1  0  0  0  0
 15 16  4  0  0  0  0
 16 17  4  0  0  0  0
 17 18  4  0  0  0  0
 18 19  4  0  0  0  0
 19 20  4  0  0  0  0
 20 21  4  0  0  0  0
 16 21  4  0  0  0  0
 21 22  4  0  0  0  0
 22 23  4  0  0  0  0
 23 24  4  0  0  0  0
 15 24  4  0  0  0  0
  8 25  1  0  0  0  0
  8 26  1  0  0  0  0
 10 27  1  0  0  0  0
 11 28  1  0  0  0  0
 12 29  1  0  0  0  0
 13 30  1  0  0  0  0
 14 31  1  0  0  0  0
 17 32  1  0  0  0  0
 18 33  1  0  0  0  0
 19 34  1  0  0  0  0
 20 35  1  0  0  0  0
 22 36  1  0  0  0  0
 23 37  1  0  0  0  0
 24 38  1  0  0  0  0
M  END
> <Compound_name>
tideglusib

> <DRUGBANK_ID>
DB12129

$$$$

  Mrv1817 03252020182D          

 23 23  0  0  0  0            999 V2000
    0.6725   -1.9957    0.0000 C   0  0  0  0  0  0  0  0  0  0  0  0
    1.3870   -2.4082    0.0000 C   0  0  0  0  0  0  0  0  0  0  0  0
    2.1015   -1.9957    0.0000 C   0  0  0  0  0  0  0  0  0  0  0  0
    2.1015   -1.1707    0.0000 C   0  0  0  0  0  0  0  0  0  0  0  0
    2.8159   -2.4082    0.0000 S   0  0  0  0  0  0  0  0  0  0  0  0
    3.5304   -1.9957    0.0000 S   0  0  0  0  0  0  0  0  0  0  0  0
    4.2449   -2.4082    0.0000 C   0  0  0  0  0  0  0  0  0  0  0  0
    4.9986   -2.0727    0.0000 N   0  0  0  0  0  0  0  0  0  0  0  0
    5.5506   -2.6857    0.0000 C   0  0  0  0  0  0  0  0  0  0  0  0
    5.1381   -3.4002    0.0000 C   0  0  0  0  0  0  0  0  0  0  0  0
    4.3311   -3.2287    0.0000 N   0  0  0  0  0  0  0  0  0  0  0  0
    1.0850   -1.2812    0.0000 H   0  0  0  0  0  0  0  0  0  0  0  0
   -0.0419   -1.5832    0.0000 H   0  0  0  0  0  0  0  0  0  0  0  0
    0.2600   -2.7102    0.0000 H   0  0  0  0  0  0  0  0  0  0  0  0
    1.0167   -3.1455    0.0000 H   0  0  0  0  0  0  0  0  0  0  0  0
    1.7573   -3.1455    0.0000 H   0  0  0  0  0  0  0  0  0  0  0  0
    1.3870   -1.5832    0.0000 H   0  0  0  0  0  0  0  0  0  0  0  0
    2.8984   -1.3842    0.0000 H   0  0  0  0  0  0  0  0  0  0  0  0
    2.5140   -0.4562    0.0000 H   0  0  0  0  0  0  0  0  0  0  0  0
    1.5181   -0.5873    0.0000 H   0  0  0  0  0  0  0  0  0  0  0  0
    6.3711   -2.5995    0.0000 H   0  0  0  0  0  0  0  0  0  0  0  0
    5.4736   -4.1539    0.0000 H   0  0  0  0  0  0  0  0  0  0  0  0
    3.7180   -3.7807    0.0000 H   0  0  0  0  0  0  0  0  0  0  0  0
  1  2  1  0  0  0  0
  2  3  1  0  0  0  0
  3  4  1  0  0  0  0
  3  5  1  0  0  0  0
  5  6  1  0  0  0  0
  6  7  1  0  0  0  0
  7  8  4  0  0  0  0
  8  9  4  0  0  0  0
  9 10  4  0  0  0  0
 10 11  4  0  0  0  0
  7 11  4  0  0  0  0
  1 12  1  0  0  0  0
  1 13  1  0  0  0  0
  1 14  1  0  0  0  0
  2 15  1  0  0  0  0
  2 16  1  0  0  0  0
  3 17  1  0  0  0  0
  4 18  1  0  0  0  0
  4 19  1  0  0  0  0
  4 20  1  0  0  0  0
  9 21  1  0  0  0  0
 10 22  1  0  0  0  0
 11 23  1  0  0  0  0
M  END
> <Compound_name>
PX-12

> <DRUGBANK_ID>
DB05448

$$$$

  Mrv1817 03252020182D          

 25 26  0  0  0  0            999 V2000
    2.0367   -0.4741    0.0000 C   0  0  0  0  0  0  0  0  0  0  0  0
    2.0367   -1.2991    0.0000 N   0  0  0  0  0  0  0  0  0  0  0  0
    2.7041   -1.7840    0.0000 S   0  0  0  0  0  0  0  0  0  0  0  0
    2.4492   -2.5687    0.0000 C   0  0  0  0  0  0  0  0  0  0  0  0
    2.9341   -3.2361    0.0000 O   0  0  0  0  0  0  0  0  0  0  0  0
    1.6242   -2.5687    0.0000 N   0  0  0  0  0  0  0  0  0  0  0  0
    1.1393   -3.2361    0.0000 C   0  0  0  0  0  0  0  0  0  0  0  0
    0.3188   -3.1499    0.0000 C   0  0  0  0  0  0  0  0  0  0  0  0
   -0.1661   -3.8173    0.0000 C   0  0  0  0  0  0  0  0  0  0  0  0
   -0.9866   -3.7311    0.0000 C   0  0  0  0  0  0  0  0  0  0  0  0
   -1.3222   -2.9774    0.0000 C   0  0  0  0  0  0  0  0  0  0  0  0
   -0.8372   -2.3099    0.0000 C   0  0  0  0  0  0  0  0  0  0  0  0
   -0.0168   -2.3962    0.0000 C   0  0  0  0  0  0  0  0  0  0  0  0
    1.3693   -1.7840    0.0000 C   0  0  0  0  0  0  0  0  0  0  0  0
    0.5846   -1.5291    0.0000 O   0  0  0  0  0  0  0  0  0  0  0  0
    2.8617   -0.4741    0.0000 H   0  0  0  0  0  0  0  0  0  0  0  0
    2.0367    0.3509    0.0000 H   0  0  0  0  0  0  0  0  0  0  0  0
    1.2117   -0.4741    0.0000 H   0  0  0  0  0  0  0  0  0  0  0  0
    1.1009   -4.0602    0.0000 H   0  0  0  0  0  0  0  0  0  0  0  0
    1.7774   -3.7590    0.0000 H   0  0  0  0  0  0  0  0  0  0  0  0
    0.1694   -4.5710    0.0000 H   0  0  0  0  0  0  0  0  0  0  0  0
   -1.4715   -4.3985    0.0000 H   0  0  0  0  0  0  0  0  0  0  0  0
   -2.1426   -2.8911    0.0000 H   0  0  0  0  0  0  0  0  0  0  0  0
   -1.1728   -1.5563    0.0000 H   0  0  0  0  0  0  0  0  0  0  0  0
    0.4682   -1.7287    0.0000 H   0  0  0  0  0  0  0  0  0  0  0  0
  1  2  1  0  0  0  0
  2  3  1  0  0  0  0
  3  4  1  0  0  0  0
  4  5  2  0  0  0  0
  4  6  1  0  0  0  0
  6  7  1  0  0  0  0
  7  8  1  0  0  0  0
  8  9  4  0  0  0  0
  9 10  4  0  0  0  0
 10 11  4  0  0  0  0
 11 12  4  0  0  0  0
 12 13  4  0  0  0  0
  8 13  4  0  0  0  0
  6 14  1  0  0  0  0
  2 14  1  0  0  0  0
 14 15  2  0  0  0  0
  1 16  1  0  0  0  0
  1 17  1  0  0  0  0
  1 18  1  0  0  0  0
  7 19  1  0  0  0  0
  7 20  1  0  0  0  0
  9 21  1  0  0  0  0
 10 22  1  0  0  0  0
 11 23  1  0  0  0  0
 12 24  1  0  0  0  0
 13 25  1  0  0  0  0
M  END
> <Compound_name>
TDZD-8

> <DRUGBANK_ID>


$$$$
